@<TRIPOS>MOLECULE
*****
 48 54 0 0 0
SMALL
GASTEIGER

@<TRIPOS>ATOM
      1 C          59.6062   89.2176    7.2521 C.3     1  UNL1        0.1543
      2 O          59.5467   89.2834   10.2509 O.2     1  UNL1       -0.2526
      3 C          60.7193   89.8562    9.5113 C.2     1  UNL1        0.3043
      4 N          60.7490   89.8233    8.0119 N.am    1  UNL1       -0.2822
      5 N          61.8621   90.4619   10.2710 N.am    1  UNL1       -0.2641
      6 C          61.8322   90.4947   11.7703 C.3     1  UNL1        0.0967
      7 C          62.9750   91.1004   12.5301 C.3     1  UNL1        0.0418
      8 C          64.1475   91.6732   11.7905 C.3     1  UNL1        0.0848
      9 C          64.1774   91.6404   10.2911 C.3     1  UNL1        0.0418
     10 C          63.0346   91.0347    9.5313 C.3     1  UNL1        0.0967
     11 H          61.5186   90.1992    7.5265 H       1  UNL1        0.1514
     12 N          65.2903   92.2789   12.5502 N.am    1  UNL1       -0.2422
     13 C          66.4677   92.9907   11.9525 C.2     1  UNL1        0.3310
     14 O          66.7090   93.2217   10.4902 O.2     1  UNL1       -0.2501
     15 N          67.3615   93.4309   13.0739 N.am    1  UNL1       -0.1647
     16 C          66.7365   92.9912   14.3646 C.2     1  UNL1        0.0706
     17 C          67.1675   93.1471   15.7928 C.3     1  UNL1        0.0705
     18 C          66.3186   92.5911   16.8975 C.2     1  UNL1       -0.0199
     19 C          65.0386   91.8792   16.5739 C.2     1  UNL1       -0.0029
     20 C          64.6074   91.7232   15.1456 C.2     1  UNL1        0.0156
     21 C          65.4565   92.2793   14.0410 C.2     1  UNL1        0.0668
     22 C          58.7781   90.0703    6.3373 C.2     1  UNL1        0.2439
     23 O          57.2873   90.1133    6.4973 O.2     1  UNL1       -0.2731
     24 N          59.4407   90.8800    5.2624 N.am    1  UNL1       -0.2781
     25 C          60.9315   90.8369    5.1024 C.3     1  UNL1        0.0948
     26 C          61.5941   91.6465    4.0275 C.3     1  UNL1        0.0375
     27 C          60.7658   92.4993    3.1126 C.3     1  UNL1        0.0609
     28 C          59.2750   92.5423    3.2727 C.3     1  UNL1        0.0375
     29 C          58.6124   91.7326    4.3476 C.3     1  UNL1        0.0948
     30 N          61.4284   93.3090    2.0377 N.3     1  UNL1       -0.2738
     31 C          60.6871   94.4372    1.3839 C.3     1  UNL1        0.0720
     32 C          61.3497   95.2469    0.3090 C.3     1  UNL1        0.0174
     33 C          62.7537   94.9283   -0.1121 C.3     1  UNL1        0.0029
     34 C          63.4950   93.8000    0.5417 C.3     1  UNL1        0.0174
     35 C          62.8324   92.9903    1.6166 C.3     1  UNL1        0.0720
     36 C          59.2917   87.7592    7.4073 C.3     1  UNL1        0.0553
     37 C          60.1965   86.8788    8.2174 C.ar    1  UNL1       -0.0200
     38 C          60.0770   86.8540    9.7125 C.ar    1  UNL1       -0.0042
     39 C          60.9818   85.9736   10.5226 C.ar    1  UNL1       -0.0003
     40 C          62.0060   85.1182    9.8377 C.ar    1  UNL1       -0.0000
     41 C          62.1255   85.1430    8.3427 C.ar    1  UNL1       -0.0003
     42 C          61.2207   86.0234    7.5325 C.ar    1  UNL1       -0.0042
     43 C          62.9108   84.2378   10.6478 C.ar    1  UNL1       -0.0000
     44 C          62.9028   84.3294   12.1450 C.ar    1  UNL1       -0.0000
     45 C          63.8075   83.4491   12.9552 C.ar    1  UNL1        0.0000
     46 C          64.7204   82.4771   12.2682 C.ar    1  UNL1        0.0000
     47 C          64.7285   82.3855   10.7710 C.ar    1  UNL1        0.0000
     48 C          63.8237   83.2659    9.9608 C.ar    1  UNL1       -0.0000
@<TRIPOS>BOND
     1     2     3    2
     2     3     4   am
     3     4     1    1
     4     1    36    1
     5    36    37    1
     6    37    38   ar
     7    38    39   ar
     8    39    40   ar
     9    40    43    1
    10    43    44   ar
    11    44    45   ar
    12    45    46   ar
    13    46    47   ar
    14    47    48   ar
    15    40    41   ar
    16    41    42   ar
    17     1    22    1
    18    22    23    2
    19    22    24   am
    20    24    25    1
    21    25    26    1
    22    26    27    1
    23    27    30    1
    24    30    31    1
    25    31    32    1
    26    32    33    1
    27    33    34    1
    28    34    35    1
    29    27    28    1
    30    28    29    1
    31     3     5   am
    32     5     6    1
    33     6     7    1
    34     7     8    1
    35     8    12    1
    36    12    13   am
    37    13    14    2
    38    13    15    1
    39    15    16    2
    40    16    17    1
    41    17    18    1
    42    18    19    2
    43    19    20    1
    44    20    21    2
    45     8     9    1
    46     9    10    1
    47    42    37   ar
    48    29    24    1
    49    10     5    1
    50    48    43   ar
    51    35    30    1
    52    21    12    1
    53    21    16    1
    54     4    11    1
@<TRIPOS>MOLECULE
*****
 48 54 0 0 0
SMALL
GASTEIGER

@<TRIPOS>ATOM
      1 C          60.3861   89.2005    8.1253 C.3     1  UNL1        0.1543
      2 O          58.2659   90.5717    6.5051 O.2     1  UNL1       -0.2526
      3 C          59.6932   90.5931    6.0442 C.2     1  UNL1        0.3043
      4 N          60.7532   89.9076    6.8543 N.am    1  UNL1       -0.2822
      5 N          60.0604   91.3002    4.7733 N.am    1  UNL1       -0.2641
      6 C          59.0003   91.9857    3.9633 C.3     1  UNL1        0.0967
      7 C          59.3674   92.6928    2.6923 C.3     1  UNL1        0.0418
      8 C          60.7946   92.7142    2.2314 C.3     1  UNL1        0.0848
      9 C          61.8548   92.0286    3.0414 C.3     1  UNL1        0.0418
     10 C          61.4876   91.3216    4.3124 C.3     1  UNL1        0.0967
     11 H          61.6900   89.9216    6.5518 H       1  UNL1        0.1514
     12 N          61.1619   93.4212    0.9605 N.am    1  UNL1       -0.2422
     13 C          62.3221   94.3535    0.7737 C.2     1  UNL1        0.3310
     14 O          63.3187   94.7423    1.8251 O.2     1  UNL1       -0.2501
     15 N          62.3106   94.8286   -0.6491 N.am    1  UNL1       -0.1647
     16 C          61.1433   94.1899   -1.3416 C.2     1  UNL1        0.0706
     17 C          60.6352   94.2881   -2.7495 C.3     1  UNL1        0.0705
     18 C          59.4170   93.5164   -3.1626 C.2     1  UNL1       -0.0199
     19 C          58.7070   92.6466   -2.1680 C.2     1  UNL1       -0.0029
     20 C          59.2152   92.5485   -0.7600 C.2     1  UNL1        0.0156
     21 C          60.4333   93.3202   -0.3469 C.2     1  UNL1        0.0668
     22 C          60.2884   87.7039    8.1496 C.2     1  UNL1        0.2439
     23 O          59.4853   86.9877    7.1047 O.2     1  UNL1       -0.2731
     24 N          60.9938   86.9235    9.2189 N.am    1  UNL1       -0.2781
     25 C          61.7970   87.6398   10.2639 C.3     1  UNL1        0.0948
     26 C          62.5024   86.8595   11.3332 C.3     1  UNL1        0.0375
     27 C          62.4047   85.3628   11.3575 C.3     1  UNL1        0.0609
     28 C          61.6015   84.6465   10.3125 C.3     1  UNL1        0.0375
     29 C          60.8961   85.4269    9.2432 C.3     1  UNL1        0.0948
     30 N          63.1101   84.5824   12.4267 N.3     1  UNL1       -0.2738
     31 C          63.7884   85.3005   13.5555 C.3     1  UNL1        0.0720
     32 C          64.4938   84.5201   14.6248 C.3     1  UNL1        0.0174
     33 C          64.5209   83.0215   14.5653 C.3     1  UNL1        0.0029
     34 C          63.8426   82.3034   13.4365 C.3     1  UNL1        0.0174
     35 C          63.1372   83.0838   12.3672 C.3     1  UNL1        0.0720
     36 C          60.1167   89.9901    9.3718 C.3     1  UNL1        0.0553
     37 C          61.2514   90.3830   10.2707 C.ar    1  UNL1       -0.0200
     38 C          61.1401   90.1779   11.7524 C.ar    1  UNL1       -0.0042
     39 C          62.2748   90.5708   12.6513 C.ar    1  UNL1       -0.0003
     40 C          63.5209   91.1687   12.0684 C.ar    1  UNL1       -0.0000
     41 C          63.6322   91.3737   10.5867 C.ar    1  UNL1       -0.0003
     42 C          62.4975   90.9809    9.6878 C.ar    1  UNL1       -0.0042
     43 C          64.6557   91.5616   12.9673 C.ar    1  UNL1       -0.0000
     44 C          65.7683   92.4181   12.4397 C.ar    1  UNL1       -0.0000
     45 C          66.9031   92.8110   13.3385 C.ar    1  UNL1        0.0000
     46 C          66.9254   92.3474   14.7648 C.ar    1  UNL1        0.0000
     47 C          65.8127   91.4909   15.2924 C.ar    1  UNL1        0.0000
     48 C          64.6779   91.0979   14.3937 C.ar    1  UNL1       -0.0000
@<TRIPOS>BOND
     1     2     3    2
     2     3     4   am
     3     4     1    1
     4     1    36    1
     5    36    37    1
     6    37    38   ar
     7    38    39   ar
     8    39    40   ar
     9    40    43    1
    10    43    44   ar
    11    44    45   ar
    12    45    46   ar
    13    46    47   ar
    14    47    48   ar
    15    40    41   ar
    16    41    42   ar
    17     1    22    1
    18    22    23    2
    19    22    24   am
    20    24    25    1
    21    25    26    1
    22    26    27    1
    23    27    30    1
    24    30    31    1
    25    31    32    1
    26    32    33    1
    27    33    34    1
    28    34    35    1
    29    27    28    1
    30    28    29    1
    31     3     5   am
    32     5     6    1
    33     6     7    1
    34     7     8    1
    35     8    12    1
    36    12    13   am
    37    13    14    2
    38    13    15    1
    39    15    16    2
    40    16    17    1
    41    17    18    1
    42    18    19    2
    43    19    20    1
    44    20    21    2
    45     8     9    1
    46     9    10    1
    47    42    37   ar
    48    29    24    1
    49    10     5    1
    50    48    43   ar
    51    35    30    1
    52    21    12    1
    53    21    16    1
    54     4    11    1
@<TRIPOS>MOLECULE
*****
 48 54 0 0 0
SMALL
GASTEIGER

@<TRIPOS>ATOM
      1 C          60.4016   89.1231    8.1650 C.3     1  UNL1        0.1543
      2 O          58.2568   90.4825    6.5673 O.2     1  UNL1       -0.2526
      3 C          59.6824   90.5311    6.1033 C.2     1  UNL1        0.3043
      4 N          60.7547   89.8514    6.9021 N.am    1  UNL1       -0.2822
      5 N          60.0356   91.2594    4.8404 N.am    1  UNL1       -0.2641
      6 C          58.9632   91.9390    4.0417 C.3     1  UNL1        0.0967
      7 C          59.3164   92.6674    2.7788 C.3     1  UNL1        0.0418
      8 C          60.7419   92.7160    2.3147 C.3     1  UNL1        0.0848
      9 C          61.8144   92.0363    3.1135 C.3     1  UNL1        0.0418
     10 C          61.4612   91.3080    4.3764 C.3     1  UNL1        0.0967
     11 H          61.6904   89.8834    6.5975 H       1  UNL1        0.1514
     12 N          61.0951   93.4443    1.0519 N.am    1  UNL1       -0.2422
     13 C          60.1465   93.8051   -0.0527 C.2     1  UNL1        0.3310
     14 O          58.6781   93.5010   -0.0882 O.2     1  UNL1       -0.2501
     15 N          60.9241   94.5235   -1.1154 N.am    1  UNL1       -0.1647
     16 C          62.3533   94.6066   -0.6677 C.2     1  UNL1        0.0706
     17 C          63.5721   95.2035   -1.3066 C.3     1  UNL1        0.0705
     18 C          64.8967   95.1335   -0.6061 C.2     1  UNL1       -0.0199
     19 C          65.0024   94.4665    0.7333 C.2     1  UNL1       -0.0029
     20 C          63.7836   93.8696    1.3722 C.2     1  UNL1        0.0156
     21 C          62.4591   93.9397    0.6717 C.2     1  UNL1        0.0668
     22 C          60.3339   87.6247    8.1727 C.2     1  UNL1        0.2439
     23 O          59.5638   86.9033    7.1067 O.2     1  UNL1       -0.2731
     24 N          61.0364   86.8477    9.2464 N.am    1  UNL1       -0.2781
     25 C          61.8066   87.5692   10.3124 C.3     1  UNL1        0.0948
     26 C          62.5090   86.7922   11.3860 C.3     1  UNL1        0.0375
     27 C          62.4413   85.2936   11.3937 C.3     1  UNL1        0.0609
     28 C          61.6712   84.5722   10.3277 C.3     1  UNL1        0.0375
     29 C          60.9687   85.3492    9.2540 C.3     1  UNL1        0.0948
     30 N          63.1438   84.5166   12.4674 N.3     1  UNL1       -0.2738
     31 C          63.1761   83.0181   12.4096 C.3     1  UNL1        0.0720
     32 C          63.8786   82.2411   13.4833 C.3     1  UNL1        0.0174
     33 C          64.5488   82.9626   14.6148 C.3     1  UNL1        0.0029
     34 C          64.5165   84.4612   14.6725 C.3     1  UNL1        0.0174
     35 C          63.8140   85.2382   13.5988 C.3     1  UNL1        0.0720
     36 C          60.1161   89.8933    9.4201 C.3     1  UNL1        0.0553
     37 C          61.2444   90.3161   10.3136 C.ar    1  UNL1       -0.0200
     38 C          61.1546   90.0888   11.7936 C.ar    1  UNL1       -0.0042
     39 C          62.2828   90.5116   12.6871 C.ar    1  UNL1       -0.0003
     40 C          63.5008   91.1616   12.1006 C.ar    1  UNL1       -0.0000
     41 C          63.5905   91.3889   10.6206 C.ar    1  UNL1       -0.0003
     42 C          62.4623   90.9661    9.7271 C.ar    1  UNL1       -0.0042
     43 C          64.6291   91.5844   12.9940 C.ar    1  UNL1       -0.0000
     44 C          64.6693   91.1230   14.4207 C.ar    1  UNL1       -0.0000
     45 C          65.7975   91.5457   15.3142 C.ar    1  UNL1        0.0000
     46 C          66.8855   92.4300   14.7811 C.ar    1  UNL1        0.0000
     47 C          66.8453   92.8914   13.3544 C.ar    1  UNL1        0.0000
     48 C          65.7171   92.4687   12.4609 C.ar    1  UNL1       -0.0000
@<TRIPOS>BOND
     1     2     3    2
     2     3     4   am
     3     4     1    1
     4     1    36    1
     5    36    37    1
     6    37    38   ar
     7    38    39   ar
     8    39    40   ar
     9    40    43    1
    10    43    44   ar
    11    44    45   ar
    12    45    46   ar
    13    46    47   ar
    14    47    48   ar
    15    40    41   ar
    16    41    42   ar
    17     1    22    1
    18    22    23    2
    19    22    24   am
    20    24    25    1
    21    25    26    1
    22    26    27    1
    23    27    30    1
    24    30    31    1
    25    31    32    1
    26    32    33    1
    27    33    34    1
    28    34    35    1
    29    27    28    1
    30    28    29    1
    31     3     5   am
    32     5     6    1
    33     6     7    1
    34     7     8    1
    35     8    12    1
    36    12    13   am
    37    13    14    2
    38    13    15    1
    39    15    16    2
    40    16    17    1
    41    17    18    1
    42    18    19    2
    43    19    20    1
    44    20    21    2
    45     8     9    1
    46     9    10    1
    47    42    37   ar
    48    29    24    1
    49    10     5    1
    50    48    43   ar
    51    35    30    1
    52    21    12    1
    53    21    16    1
    54     4    11    1
@<TRIPOS>MOLECULE
*****
 48 54 0 0 0
SMALL
GASTEIGER

@<TRIPOS>ATOM
      1 C          60.3990   89.0013    8.0088 C.3     1  UNL1        0.1543
      2 O          58.2496   90.3581    6.4152 O.2     1  UNL1       -0.2526
      3 C          59.6838   90.4747    5.9918 C.2     1  UNL1        0.3043
      4 N          60.7585   89.7963    6.7886 N.am    1  UNL1       -0.2822
      5 N          60.0435   91.2696    4.7717 N.am    1  UNL1       -0.2641
      6 C          58.9687   91.9479    3.9749 C.3     1  UNL1        0.0967
      7 C          59.3283   92.7429    2.7547 C.3     1  UNL1        0.0418
      8 C          60.7625   92.8595    2.3314 C.3     1  UNL1        0.0848
      9 C          61.8373   92.1811    3.1282 C.3     1  UNL1        0.0418
     10 C          61.4777   91.3862    4.3483 C.3     1  UNL1        0.0967
     11 H          61.6999   89.8728    6.5107 H       1  UNL1        0.1514
     12 N          61.1222   93.6544    1.1112 N.am    1  UNL1       -0.2422
     13 C          62.1817   94.7131    1.0293 C.2     1  UNL1        0.3310
     14 O          63.0676   95.1626    2.1532 O.2     1  UNL1       -0.2501
     15 N          62.1998   95.2433   -0.3738 N.am    1  UNL1       -0.1647
     16 C          61.1514   94.5123   -1.1590 C.2     1  UNL1        0.0706
     17 C          60.7172   94.6139   -2.5912 C.3     1  UNL1        0.0705
     18 C          59.6170   93.7336   -3.1056 C.2     1  UNL1       -0.0199
     19 C          58.9510   92.7517   -2.1879 C.2     1  UNL1       -0.0029
     20 C          59.3852   92.6500   -0.7556 C.2     1  UNL1        0.0156
     21 C          60.4854   93.5303   -0.2413 C.2     1  UNL1        0.0668
     22 C          60.1473   89.7002    9.3119 C.2     1  UNL1        0.2439
     23 O          58.7408   89.9473    9.7710 O.2     1  UNL1       -0.2731
     24 N          61.3020   90.1519   10.1561 N.am    1  UNL1       -0.2781
     25 C          62.7085   89.9047    9.6969 C.3     1  UNL1        0.0948
     26 C          63.8633   90.3564   10.5410 C.3     1  UNL1        0.0375
     27 C          63.6115   91.0553   11.8443 C.3     1  UNL1        0.0609
     28 C          62.2050   91.3024   12.3033 C.3     1  UNL1        0.0375
     29 C          61.0503   90.8507   11.4592 C.3     1  UNL1        0.0948
     30 N          64.7662   91.5070   12.6884 N.3     1  UNL1       -0.2738
     31 C          65.6476   92.6254   12.2170 C.3     1  UNL1        0.0720
     32 C          66.8024   93.0771   13.0611 C.3     1  UNL1        0.0174
     33 C          67.0758   92.4104   14.3767 C.3     1  UNL1        0.0029
     34 C          66.1943   91.2919   14.8481 C.3     1  UNL1        0.0174
     35 C          65.0396   90.8402   14.0040 C.3     1  UNL1        0.0720
     36 C          60.2911   87.5075    7.9257 C.3     1  UNL1        0.0553
     37 C          61.0092   86.6471    8.9227 C.ar    1  UNL1       -0.0200
     38 C          60.6559   86.7312   10.3781 C.ar    1  UNL1       -0.0042
     39 C          61.3740   85.8707   11.3751 C.ar    1  UNL1       -0.0003
     40 C          62.4454   84.9263   10.9167 C.ar    1  UNL1       -0.0000
     41 C          62.7987   84.8423    9.4613 C.ar    1  UNL1       -0.0003
     42 C          62.0806   85.7027    8.4643 C.ar    1  UNL1       -0.0042
     43 C          63.1635   84.0658   11.9137 C.ar    1  UNL1       -0.0000
     44 C          63.8033   84.6889   13.1188 C.ar    1  UNL1       -0.0000
     45 C          64.5215   83.8285   14.1158 C.ar    1  UNL1        0.0000
     46 C          64.5998   82.3451   13.9077 C.ar    1  UNL1        0.0000
     47 C          63.9600   81.7221   12.7025 C.ar    1  UNL1        0.0000
     48 C          63.2419   82.5824   11.7055 C.ar    1  UNL1       -0.0000
@<TRIPOS>BOND
     1     2     3    2
     2     3     4   am
     3     4     1    1
     4     1    36    1
     5    36    37    1
     6    37    38   ar
     7    38    39   ar
     8    39    40   ar
     9    40    43    1
    10    43    44   ar
    11    44    45   ar
    12    45    46   ar
    13    46    47   ar
    14    47    48   ar
    15    40    41   ar
    16    41    42   ar
    17     1    22    1
    18    22    23    2
    19    22    24   am
    20    24    25    1
    21    25    26    1
    22    26    27    1
    23    27    30    1
    24    30    31    1
    25    31    32    1
    26    32    33    1
    27    33    34    1
    28    34    35    1
    29    27    28    1
    30    28    29    1
    31     3     5   am
    32     5     6    1
    33     6     7    1
    34     7     8    1
    35     8    12    1
    36    12    13   am
    37    13    14    2
    38    13    15    1
    39    15    16    2
    40    16    17    1
    41    17    18    1
    42    18    19    2
    43    19    20    1
    44    20    21    2
    45     8     9    1
    46     9    10    1
    47    42    37   ar
    48    29    24    1
    49    10     5    1
    50    48    43   ar
    51    35    30    1
    52    21    12    1
    53    21    16    1
    54     4    11    1
@<TRIPOS>MOLECULE
*****
 48 54 0 0 0
SMALL
GASTEIGER

@<TRIPOS>ATOM
      1 C          60.3956   88.9417    8.0353 C.3     1  UNL1        0.1543
      2 O          58.2122   90.2723    6.4662 O.2     1  UNL1       -0.2526
      3 C          59.6432   90.4359    6.0474 C.2     1  UNL1        0.3043
      4 N          60.7349   89.7705    6.8320 N.am    1  UNL1       -0.2822
      5 N          59.9826   91.2647    4.8442 N.am    1  UNL1       -0.2641
      6 C          58.8908   91.9300    4.0597 C.3     1  UNL1        0.0967
      7 C          59.2301   92.7589    2.8564 C.3     1  UNL1        0.0418
      8 C          60.6612   92.9224    2.4377 C.3     1  UNL1        0.0848
      9 C          61.7530   92.2571    3.2222 C.3     1  UNL1        0.0418
     10 C          61.4136   91.4282    4.4254 C.3     1  UNL1        0.0967
     11 H          61.6742   89.8779    6.5571 H       1  UNL1        0.1514
     12 N          61.0005   93.7512    1.2344 N.am    1  UNL1       -0.2422
     13 C          60.0586   94.1289    0.1297 C.2     1  UNL1        0.3310
     14 O          58.6120   93.7439    0.0344 O.2     1  UNL1       -0.2501
     15 N          60.8173   94.9590   -0.8629 N.am    1  UNL1       -0.1647
     16 C          62.2281   95.0945   -0.3717 C.2     1  UNL1        0.0706
     17 C          63.4243   95.8011   -0.9373 C.3     1  UNL1        0.0705
     18 C          64.7337   95.7613   -0.2066 C.2     1  UNL1       -0.0199
     19 C          64.8470   95.0149    1.0895 C.2     1  UNL1       -0.0029
     20 C          63.6508   94.3082    1.6551 C.2     1  UNL1        0.0156
     21 C          62.3414   94.3481    0.9244 C.2     1  UNL1        0.0668
     22 C          60.1343   89.6063    9.3544 C.2     1  UNL1        0.2439
     23 O          58.7263   89.7751    9.8431 O.2     1  UNL1       -0.2731
     24 N          61.2810   90.1020   10.1847 N.am    1  UNL1       -0.2781
     25 C          62.6890   89.9331    9.6958 C.3     1  UNL1        0.0948
     26 C          63.8357   90.4288   10.5261 C.3     1  UNL1        0.0375
     27 C          63.5743   91.0935   11.8453 C.3     1  UNL1        0.0609
     28 C          62.1662   91.2624   12.3340 C.3     1  UNL1        0.0375
     29 C          61.0196   90.7666   11.5037 C.3     1  UNL1        0.0948
     30 N          64.7209   91.5892   12.6756 N.3     1  UNL1       -0.2738
     31 C          65.0372   90.9320   13.9862 C.3     1  UNL1        0.0720
     32 C          66.1838   91.4277   14.8165 C.3     1  UNL1        0.0174
     33 C          67.0143   92.5808   14.3362 C.3     1  UNL1        0.0029
     34 C          66.6980   93.2381   13.0254 C.3     1  UNL1        0.0174
     35 C          65.5514   92.7423   12.1951 C.3     1  UNL1        0.0720
     36 C          60.3177   87.4482    7.9194 C.3     1  UNL1        0.0553
     37 C          61.0339   86.5805    8.9115 C.ar    1  UNL1       -0.0200
     38 C          60.6601   86.6352   10.3632 C.ar    1  UNL1       -0.0042
     39 C          61.3763   85.7676   11.3552 C.ar    1  UNL1       -0.0003
     40 C          62.4663   84.8453   10.8956 C.ar    1  UNL1       -0.0000
     41 C          62.8401   84.7906    9.4440 C.ar    1  UNL1       -0.0003
     42 C          62.1239   85.6583    8.4519 C.ar    1  UNL1       -0.0042
     43 C          63.1826   83.9776   11.8877 C.ar    1  UNL1       -0.0000
     44 C          63.8193   84.5917   13.0991 C.ar    1  UNL1       -0.0000
     45 C          64.5355   83.7241   14.0912 C.ar    1  UNL1        0.0000
     46 C          64.6152   82.2424   13.8718 C.ar    1  UNL1        0.0000
     47 C          63.9785   81.6283   12.6604 C.ar    1  UNL1        0.0000
     48 C          63.2622   82.4959   11.6684 C.ar    1  UNL1       -0.0000
@<TRIPOS>BOND
     1     2     3    2
     2     3     4   am
     3     4     1    1
     4     1    36    1
     5    36    37    1
     6    37    38   ar
     7    38    39   ar
     8    39    40   ar
     9    40    43    1
    10    43    44   ar
    11    44    45   ar
    12    45    46   ar
    13    46    47   ar
    14    47    48   ar
    15    40    41   ar
    16    41    42   ar
    17     1    22    1
    18    22    23    2
    19    22    24   am
    20    24    25    1
    21    25    26    1
    22    26    27    1
    23    27    30    1
    24    30    31    1
    25    31    32    1
    26    32    33    1
    27    33    34    1
    28    34    35    1
    29    27    28    1
    30    28    29    1
    31     3     5   am
    32     5     6    1
    33     6     7    1
    34     7     8    1
    35     8    12    1
    36    12    13   am
    37    13    14    2
    38    13    15    1
    39    15    16    2
    40    16    17    1
    41    17    18    1
    42    18    19    2
    43    19    20    1
    44    20    21    2
    45     8     9    1
    46     9    10    1
    47    42    37   ar
    48    29    24    1
    49    10     5    1
    50    48    43   ar
    51    35    30    1
    52    21    12    1
    53    21    16    1
    54     4    11    1
@<TRIPOS>MOLECULE
*****
 48 54 0 0 0
SMALL
GASTEIGER

@<TRIPOS>ATOM
      1 C          60.1296   88.8657    7.9264 C.3     1  UNL1        0.1543
      2 O          60.0726   89.3251   10.8906 O.2     1  UNL1       -0.2526
      3 C          61.1942   89.8844   10.0664 C.2     1  UNL1        0.3043
      4 N          61.2227   89.6547    8.5844 N.am    1  UNL1       -0.2822
      5 N          62.2873   90.6734   10.7242 N.am    1  UNL1       -0.2641
      6 C          62.2587   90.9030   12.2062 C.3     1  UNL1        0.0967
      7 C          63.3518   91.6920   12.8641 C.3     1  UNL1        0.0418
      8 C          64.4733   92.2513   12.0399 C.3     1  UNL1        0.0848
      9 C          64.5019   92.0216   10.5578 C.3     1  UNL1        0.0418
     10 C          63.4088   91.2326    9.9000 C.3     1  UNL1        0.0967
     11 H          61.9588   90.0218    8.0434 H       1  UNL1        0.1514
     12 N          65.5664   93.0402   12.6977 N.am    1  UNL1       -0.2422
     13 C          66.0448   94.4000   12.2825 C.2     1  UNL1        0.3310
     14 O          65.5141   95.2094   11.1366 O.2     1  UNL1       -0.2501
     15 N          67.1471   94.8081   13.2144 N.am    1  UNL1       -0.1647
     16 C          67.3500   93.7007   14.2056 C.2     1  UNL1        0.0706
     17 C          68.2980   93.5460   15.3576 C.3     1  UNL1        0.0705
     18 C          68.2692   92.2987   16.1904 C.2     1  UNL1       -0.0199
     19 C          67.2924   91.2061   15.8711 C.2     1  UNL1       -0.0029
     20 C          66.3442   91.3607   14.7190 C.2     1  UNL1        0.0156
     21 C          66.3731   92.6081   13.8863 C.2     1  UNL1        0.0668
     22 C          60.1448   87.3671    7.9883 C.2     1  UNL1        0.2439
     23 O          59.4088   86.5664    6.9553 O.2     1  UNL1       -0.2731
     24 N          60.8961   86.6692    9.0831 N.am    1  UNL1       -0.2781
     25 C          61.6321   87.4700   10.1161 C.3     1  UNL1        0.0948
     26 C          62.3833   86.7722   11.2109 C.3     1  UNL1        0.0375
     27 C          62.3985   85.2734   11.2727 C.3     1  UNL1        0.0609
     28 C          61.6624   84.4727   10.2397 C.3     1  UNL1        0.0375
     29 C          60.9112   85.1706    9.1449 C.3     1  UNL1        0.0948
     30 N          63.1497   84.5755   12.3675 N.3     1  UNL1       -0.2738
     31 C          63.2240   83.0776   12.3893 C.3     1  UNL1        0.0720
     32 C          63.9752   82.3797   13.4841 C.3     1  UNL1        0.0174
     33 C          64.6522   83.1798   14.5572 C.3     1  UNL1        0.0029
     34 C          64.5780   84.6778   14.5354 C.3     1  UNL1        0.0174
     35 C          63.8267   85.3757   13.4406 C.3     1  UNL1        0.0720
     36 C          59.0214   89.5755    7.2067 C.3     1  UNL1        0.0553
     37 C          59.3285   90.4278    6.0112 C.ar    1  UNL1       -0.0200
     38 C          58.2286   91.1836    5.3264 C.ar    1  UNL1       -0.0042
     39 C          58.5358   92.0360    4.1309 C.ar    1  UNL1       -0.0003
     40 C          59.9429   92.1325    3.6203 C.ar    1  UNL1       -0.0000
     41 C          61.0428   91.3767    4.3051 C.ar    1  UNL1       -0.0003
     42 C          60.7356   90.5243    5.5006 C.ar    1  UNL1       -0.0042
     43 C          60.2501   92.9848    2.4248 C.ar    1  UNL1       -0.0000
     44 C          61.6164   93.5818    2.2607 C.ar    1  UNL1       -0.0000
     45 C          61.9237   94.4342    1.0652 C.ar    1  UNL1        0.0000
     46 C          60.8648   94.6895    0.0340 C.ar    1  UNL1        0.0000
     47 C          59.4986   94.0925    0.1981 C.ar    1  UNL1        0.0000
     48 C          59.1913   93.2401    1.3936 C.ar    1  UNL1       -0.0000
@<TRIPOS>BOND
     1     2     3    2
     2     3     4   am
     3     4     1    1
     4     1    36    1
     5    36    37    1
     6    37    38   ar
     7    38    39   ar
     8    39    40   ar
     9    40    43    1
    10    43    44   ar
    11    44    45   ar
    12    45    46   ar
    13    46    47   ar
    14    47    48   ar
    15    40    41   ar
    16    41    42   ar
    17     1    22    1
    18    22    23    2
    19    22    24   am
    20    24    25    1
    21    25    26    1
    22    26    27    1
    23    27    30    1
    24    30    31    1
    25    31    32    1
    26    32    33    1
    27    33    34    1
    28    34    35    1
    29    27    28    1
    30    28    29    1
    31     3     5   am
    32     5     6    1
    33     6     7    1
    34     7     8    1
    35     8    12    1
    36    12    13   am
    37    13    14    2
    38    13    15    1
    39    15    16    2
    40    16    17    1
    41    17    18    1
    42    18    19    2
    43    19    20    1
    44    20    21    2
    45     8     9    1
    46     9    10    1
    47    42    37   ar
    48    29    24    1
    49    10     5    1
    50    48    43   ar
    51    35    30    1
    52    21    12    1
    53    21    16    1
    54     4    11    1
@<TRIPOS>MOLECULE
*****
 48 54 0 0 0
SMALL
GASTEIGER

@<TRIPOS>ATOM
      1 C          60.1860   89.2128    8.1419 C.3     1  UNL1        0.1543
      2 O          59.8200   88.7123   11.0772 O.2     1  UNL1       -0.2526
      3 C          60.9930   89.5123   10.5933 C.2     1  UNL1        0.3043
      4 N          61.1759   89.7625    9.1257 N.am    1  UNL1       -0.2822
      5 N          61.9829   90.0620   11.5771 N.am    1  UNL1       -0.2641
      6 C          61.7999   89.8117   13.0446 C.3     1  UNL1        0.0967
      7 C          62.7898   90.3615   14.0285 C.3     1  UNL1        0.0418
      8 C          63.9628   91.1615   13.5446 C.3     1  UNL1        0.0848
      9 C          64.1459   91.4118   12.0769 C.3     1  UNL1        0.0418
     10 C          63.1559   90.8620   11.0932 C.3     1  UNL1        0.0967
     11 H          61.9458   90.2876    8.8082 H       1  UNL1        0.1514
     12 N          64.9528   91.7112   14.5283 N.am    1  UNL1       -0.2422
     13 C          64.6500   92.1578   15.9280 C.2     1  UNL1        0.3310
     14 O          63.3040   92.1330   16.5895 O.2     1  UNL1       -0.2501
     15 N          65.9294   92.6335   16.5498 N.am    1  UNL1       -0.1647
     16 C          67.0230   92.4809   15.5346 C.2     1  UNL1        0.0706
     17 C          68.4905   92.7873   15.5863 C.3     1  UNL1        0.0705
     18 C          69.3544   92.5238   14.3887 C.2     1  UNL1       -0.0199
     19 C          68.7508   91.9538   13.1394 C.2     1  UNL1       -0.0029
     20 C          67.2833   91.6473   13.0876 C.2     1  UNL1        0.0156
     21 C          66.4195   91.9109   14.2852 C.2     1  UNL1        0.0668
     22 C          60.1955   87.7511    7.8056 C.2     1  UNL1        0.2439
     23 O          59.4486   87.2532    6.6038 O.2     1  UNL1       -0.2731
     24 N          60.9520   86.7872    8.6709 N.am    1  UNL1       -0.2781
     25 C          61.6989   87.2852    9.8726 C.3     1  UNL1        0.0948
     26 C          62.4553   86.3214   10.7379 C.3     1  UNL1        0.0375
     27 C          62.4648   84.8595   10.4015 C.3     1  UNL1        0.0609
     28 C          61.7179   84.3616    9.1998 C.3     1  UNL1        0.0375
     29 C          60.9614   85.3255    8.3345 C.3     1  UNL1        0.0948
     30 N          63.2213   83.8957   11.2668 N.3     1  UNL1       -0.2738
     31 C          63.5945   84.2793   12.6680 C.3     1  UNL1        0.0720
     32 C          64.3510   83.3155   13.5334 C.3     1  UNL1        0.0174
     33 C          64.7342   81.9679   12.9975 C.3     1  UNL1        0.0029
     34 C          64.3609   81.5842   11.5962 C.3     1  UNL1        0.0174
     35 C          63.6044   82.5481   10.7308 C.3     1  UNL1        0.0720
     36 C          59.1866   90.1249    7.4945 C.3     1  UNL1        0.0553
     37 C          59.5055   90.7756    6.1811 C.ar    1  UNL1       -0.0200
     38 C          58.4329   91.4998    5.4229 C.ar    1  UNL1       -0.0042
     39 C          58.7518   92.1505    4.1095 C.ar    1  UNL1       -0.0003
     40 C          60.1434   92.0769    3.5545 C.ar    1  UNL1       -0.0000
     41 C          61.2160   91.3527    4.3128 C.ar    1  UNL1       -0.0003
     42 C          60.8971   90.7020    5.6261 C.ar    1  UNL1       -0.0042
     43 C          60.4624   92.7275    2.2411 C.ar    1  UNL1       -0.0000
     44 C          59.3531   93.2094    1.3539 C.ar    1  UNL1       -0.0000
     45 C          59.6720   93.8600    0.0405 C.ar    1  UNL1        0.0000
     46 C          61.1003   94.0288   -0.3856 C.ar    1  UNL1        0.0000
     47 C          62.2096   93.5470    0.5016 C.ar    1  UNL1        0.0000
     48 C          61.8906   92.8963    1.8150 C.ar    1  UNL1       -0.0000
@<TRIPOS>BOND
     1     2     3    2
     2     3     4   am
     3     4     1    1
     4     1    36    1
     5    36    37    1
     6    37    38   ar
     7    38    39   ar
     8    39    40   ar
     9    40    43    1
    10    43    44   ar
    11    44    45   ar
    12    45    46   ar
    13    46    47   ar
    14    47    48   ar
    15    40    41   ar
    16    41    42   ar
    17     1    22    1
    18    22    23    2
    19    22    24   am
    20    24    25    1
    21    25    26    1
    22    26    27    1
    23    27    30    1
    24    30    31    1
    25    31    32    1
    26    32    33    1
    27    33    34    1
    28    34    35    1
    29    27    28    1
    30    28    29    1
    31     3     5   am
    32     5     6    1
    33     6     7    1
    34     7     8    1
    35     8    12    1
    36    12    13   am
    37    13    14    2
    38    13    15    1
    39    15    16    2
    40    16    17    1
    41    17    18    1
    42    18    19    2
    43    19    20    1
    44    20    21    2
    45     8     9    1
    46     9    10    1
    47    42    37   ar
    48    29    24    1
    49    10     5    1
    50    48    43   ar
    51    35    30    1
    52    21    12    1
    53    21    16    1
    54     4    11    1
