@<TRIPOS>MOLECULE
*****
 38 41 0 0 0
SMALL
GASTEIGER

@<TRIPOS>ATOM
      1 C          60.5039   90.7374   11.4381 C.3     1  UNL1        0.0265
      2 C          61.8664   90.1279   11.5860 C.3     1  UNL1        0.1011
      3 N          63.0807   91.0075   11.6298 N.am    1  UNL1       -0.2438
      4 C          63.6151   91.6118   10.3652 C.3     1  UNL1        0.1009
      5 C          64.8294   92.4913   10.4090 C.3     1  UNL1        0.0662
      6 C          65.5094   92.7665   11.7173 C.3     1  UNL1        0.1600
      7 O          64.9750   92.1622   12.9820 O.3     1  UNL1       -0.4374
      8 C          63.7607   91.2826   12.9383 C.2     1  UNL1        0.4051
      9 O          63.2264   90.6783   14.2029 O.2     1  UNL1       -0.2262
     10 C          66.3855   93.5624   10.7960 C.ar    1  UNL1        0.0138
     11 C          66.3389   95.0614   10.8255 C.ar    1  UNL1       -0.0010
     12 C          67.2151   95.8573    9.9041 C.ar    1  UNL1       -0.0002
     13 C          68.1378   95.1541    8.9533 C.ar    1  UNL1       -0.0000
     14 C          68.1845   93.6552    8.9238 C.ar    1  UNL1       -0.0002
     15 C          67.3083   92.8593    9.8452 C.ar    1  UNL1       -0.0010
     16 C          66.4936   93.3181   12.7058 C.3     1  UNL1        0.0714
     17 C          67.0769   92.4259   13.7611 C.3     1  UNL1        0.0922
     18 C          67.8228   91.6648   12.7054 C.3     1  UNL1        0.0294
     19 C          66.3310   93.1870   14.8167 C.3     1  UNL1        0.0294
     20 O          67.6602   91.5337   14.8163 O.3     1  UNL1       -0.3866
     21 H          68.2407   90.8773   14.4001 H       1  UNL1        0.2102
     22 C          62.0148   88.6389   11.6902 C.ar    1  UNL1       -0.0042
     23 C          61.0655   87.7376   10.9578 C.ar    1  UNL1       -0.0026
     24 C          61.2138   86.2486   11.0620 C.ar    1  UNL1        0.0012
     25 C          62.3114   85.6609   11.8987 C.ar    1  UNL1        0.0176
     26 C          63.2607   86.5623   12.6311 C.ar    1  UNL1        0.0012
     27 C          63.1124   88.0512   12.5269 C.ar    1  UNL1       -0.0026
     28 C          62.4598   84.1719   12.0029 C.ar    1  UNL1        0.0813
     29 C          62.9523   83.3830   10.8260 C.ar    1  UNL1        0.0193
     30 C          63.1006   81.8940   10.9302 C.ar    1  UNL1        0.0076
     31 C          62.7564   81.1938   12.2113 C.ar    1  UNL1        0.0723
     32 C          62.2638   81.9827   13.3882 C.ar    1  UNL1        0.1033
     33 N          62.1155   83.4717   13.2840 N.ar    1  UNL1       -0.2437
     34 C          62.9046   79.7049   12.3155 C.2     1  UNL1        0.2443
     35 N          62.8196   78.8546   11.0827 N.am    1  UNL1       -0.3253
     36 O          63.1380   79.0661   13.6525 O.2     1  UNL1       -0.2703
     37 H          62.6665   79.2738   10.2052 H       1  UNL1        0.1453
     38 H          62.9169   77.8773   11.1511 H       1  UNL1        0.1453
@<TRIPOS>BOND
     1     2     1    1
     2     2    22    1
     3    22    23   ar
     4    23    24   ar
     5    24    25   ar
     6    25    28    1
     7    28    29   ar
     8    29    30   ar
     9    30    31   ar
    10    31    34    1
    11    34    35   am
    12    34    36    2
    13    31    32   ar
    14    32    33   ar
    15    25    26   ar
    16    26    27   ar
    17     2     3    1
    18     3     4    1
    19     4     5    1
    20     5     6    1
    21     6    16    1
    22    16    17    1
    23    17    18    1
    24    17    19    1
    25    17    20    1
    26     6    10    1
    27    10    11   ar
    28    11    12   ar
    29    12    13   ar
    30    13    14   ar
    31    14    15   ar
    32     6     7    1
    33     7     8    1
    34     8     9    2
    35    27    22   ar
    36     8     3   am
    37    33    28   ar
    38    15    10   ar
    39    35    37    1
    40    35    38    1
    41    20    21    1
@<TRIPOS>MOLECULE
*****
 38 41 0 0 0
SMALL
GASTEIGER

@<TRIPOS>ATOM
      1 C          61.0225   90.5299   11.2263 C.3     1  UNL1        0.0265
      2 C          62.3035   89.8524   11.6138 C.3     1  UNL1        0.1011
      3 N          63.5170   90.6721   11.9387 N.am    1  UNL1       -0.2438
      4 C          64.1974   90.5112   13.2657 C.3     1  UNL1        0.1009
      5 C          65.4109   91.3309   13.5906 C.3     1  UNL1        0.0662
      6 C          65.9439   92.3114   12.5885 C.3     1  UNL1        0.1600
      7 O          65.2635   92.4724   11.2614 O.3     1  UNL1       -0.4374
      8 C          64.0500   91.6527   10.9365 C.2     1  UNL1        0.4051
      9 O          63.3695   91.8136    9.6095 O.2     1  UNL1       -0.2262
     10 C          66.9283   92.5157   13.7018 C.ar    1  UNL1        0.0138
     11 C          68.3255   91.9853   13.5742 C.ar    1  UNL1       -0.0010
     12 C          69.3099   92.1895   14.6876 C.ar    1  UNL1       -0.0002
     13 C          68.8968   92.9243   15.9283 C.ar    1  UNL1       -0.0000
     14 C          67.4996   93.4548   16.0559 C.ar    1  UNL1       -0.0002
     15 C          66.5153   93.2505   14.9426 C.ar    1  UNL1       -0.0010
     16 C          66.8188   93.3630   11.9730 C.3     1  UNL1        0.0714
     17 C          66.6118   93.7686   10.5438 C.3     1  UNL1        0.0922
     18 C          65.7645   94.9217   10.9937 C.3     1  UNL1        0.0294
     19 C          67.4591   92.6155   10.0939 C.3     1  UNL1        0.0294
     20 O          66.4047   94.1742    9.1146 O.3     1  UNL1       -0.3866
     21 H          65.8435   94.9647    9.0810 H       1  UNL1        0.2102
     22 C          62.3709   88.3552   11.6764 C.ar    1  UNL1       -0.0042
     23 C          61.5507   87.5273   10.7321 C.ar    1  UNL1       -0.0026
     24 C          61.6182   86.0302   10.7947 C.ar    1  UNL1        0.0012
     25 C          62.5060   85.3609   11.8017 C.ar    1  UNL1        0.0176
     26 C          63.3262   86.1888   12.7460 C.ar    1  UNL1        0.0012
     27 C          63.2587   87.6859   12.6834 C.ar    1  UNL1       -0.0026
     28 C          62.5735   83.8637   11.8643 C.ar    1  UNL1        0.0813
     29 C          63.0794   83.0858   10.6859 C.ar    1  UNL1        0.0193
     30 C          63.1469   81.5886   10.7485 C.ar    1  UNL1        0.0076
     31 C          62.7084   80.8693   11.9896 C.ar    1  UNL1        0.0723
     32 C          62.2024   81.6473   13.1681 C.ar    1  UNL1        0.1033
     33 N          62.1350   83.1445   13.1055 N.ar    1  UNL1       -0.2437
     34 C          62.7759   79.3722   12.0523 C.2     1  UNL1        0.2443
     35 N          62.8329   78.6790   13.3813 N.am    1  UNL1       -0.3253
     36 O          62.7863   78.5682   10.7860 O.2     1  UNL1       -0.2703
     37 H          62.8261   79.2067   14.2124 H       1  UNL1        0.1453
     38 H          62.8772   77.6964   13.4224 H       1  UNL1        0.1453
@<TRIPOS>BOND
     1     2     1    1
     2     2    22    1
     3    22    23   ar
     4    23    24   ar
     5    24    25   ar
     6    25    28    1
     7    28    29   ar
     8    29    30   ar
     9    30    31   ar
    10    31    34    1
    11    34    35   am
    12    34    36    2
    13    31    32   ar
    14    32    33   ar
    15    25    26   ar
    16    26    27   ar
    17     2     3    1
    18     3     4    1
    19     4     5    1
    20     5     6    1
    21     6    16    1
    22    16    17    1
    23    17    18    1
    24    17    19    1
    25    17    20    1
    26     6    10    1
    27    10    11   ar
    28    11    12   ar
    29    12    13   ar
    30    13    14   ar
    31    14    15   ar
    32     6     7    1
    33     7     8    1
    34     8     9    2
    35    27    22   ar
    36     8     3   am
    37    33    28   ar
    38    15    10   ar
    39    35    37    1
    40    35    38    1
    41    20    21    1
@<TRIPOS>MOLECULE
*****
 38 41 0 0 0
SMALL
GASTEIGER

@<TRIPOS>ATOM
      1 C          63.2172   88.6421   17.0217 C.3     1  UNL1        0.0265
      2 C          63.6518   88.3695   15.6122 C.3     1  UNL1        0.1011
      3 N          63.6462   86.9657   15.0837 N.am    1  UNL1       -0.2438
      4 C          63.7140   86.7205   13.6055 C.3     1  UNL1        0.1009
      5 C          63.7084   85.3167   13.0770 C.3     1  UNL1        0.0662
      6 C          63.6349   84.1581   14.0268 C.3     1  UNL1        0.1600
      7 O          63.5671   84.4032   15.5051 O.3     1  UNL1       -0.4374
      8 C          63.5727   85.8071   16.0336 C.2     1  UNL1        0.4051
      9 O          63.5049   86.0523   17.5118 O.2     1  UNL1       -0.2262
     10 C          63.6830   83.4217   12.7209 C.ar    1  UNL1        0.0138
     11 C          62.6834   83.7333   11.6468 C.ar    1  UNL1       -0.0010
     12 C          62.7315   82.9969   10.3409 C.ar    1  UNL1       -0.0002
     13 C          63.7793   81.9489   10.1091 C.ar    1  UNL1       -0.0000
     14 C          64.7790   81.6372   11.1831 C.ar    1  UNL1       -0.0002
     15 C          64.7308   82.3736   12.4891 C.ar    1  UNL1       -0.0010
     16 C          63.5781   82.7437   14.5231 C.3     1  UNL1        0.0714
     17 C          62.2662   82.0182   14.5723 C.3     1  UNL1        0.0922
     18 C          62.9525   80.7492   14.1614 C.3     1  UNL1        0.0294
     19 C          61.5800   83.2871   14.9832 C.3     1  UNL1        0.0294
     20 O          60.9543   81.2926   14.6215 O.3     1  UNL1       -0.3866
     21 H          61.0900   80.3626   14.3816 H       1  UNL1        0.2102
     22 C          64.0922   89.5008   14.7310 C.ar    1  UNL1       -0.0042
     23 C          65.2855   90.3265   15.1106 C.ar    1  UNL1       -0.0026
     24 C          65.7258   91.4577   14.2295 C.ar    1  UNL1        0.0012
     25 C          64.9727   91.7633   12.9688 C.ar    1  UNL1        0.0176
     26 C          63.7794   90.9377   12.5891 C.ar    1  UNL1        0.0012
     27 C          63.3391   89.8064   13.4703 C.ar    1  UNL1       -0.0026
     28 C          65.4131   92.8946   12.0876 C.ar    1  UNL1        0.0813
     29 C          65.4133   92.7279   10.5970 C.ar    1  UNL1        0.0193
     30 C          65.8537   93.8592    9.7158 C.ar    1  UNL1        0.0076
     31 C          66.2938   95.1572   10.3254 C.ar    1  UNL1        0.0723
     32 C          66.2935   95.3238   11.8162 C.ar    1  UNL1        0.1033
     33 N          65.8532   94.1926   12.6973 N.ar    1  UNL1       -0.2437
     34 C          66.7341   96.2885    9.4444 C.2     1  UNL1        0.2443
     35 N          68.1171   96.8523    9.5828 N.am    1  UNL1       -0.3253
     36 O          65.7913   96.8559    8.4250 O.2     1  UNL1       -0.2703
     37 H          68.7359   96.4798   10.2519 H       1  UNL1        0.1453
     38 H          68.4062   97.5948    9.0045 H       1  UNL1        0.1453
@<TRIPOS>BOND
     1     2     1    1
     2     2    22    1
     3    22    23   ar
     4    23    24   ar
     5    24    25   ar
     6    25    28    1
     7    28    29   ar
     8    29    30   ar
     9    30    31   ar
    10    31    34    1
    11    34    35   am
    12    34    36    2
    13    31    32   ar
    14    32    33   ar
    15    25    26   ar
    16    26    27   ar
    17     2     3    1
    18     3     4    1
    19     4     5    1
    20     5     6    1
    21     6    16    1
    22    16    17    1
    23    17    18    1
    24    17    19    1
    25    17    20    1
    26     6    10    1
    27    10    11   ar
    28    11    12   ar
    29    12    13   ar
    30    13    14   ar
    31    14    15   ar
    32     6     7    1
    33     7     8    1
    34     8     9    2
    35    27    22   ar
    36     8     3   am
    37    33    28   ar
    38    15    10   ar
    39    35    37    1
    40    35    38    1
    41    20    21    1
