@<TRIPOS>MOLECULE
*****
 33 36 0 0 0
SMALL
GASTEIGER

@<TRIPOS>ATOM
      1 C          63.1457   87.5137   17.5969 C.3     1  UNL1        0.0227
      2 C          62.9375   86.1405   17.0302 C.3     1  UNL1        0.0191
      3 C          63.8909   85.5990   16.0066 C.3     1  UNL1        0.0723
      4 N          62.7370   85.5560   11.6573 N.pl3   1  UNL1       -0.3046
      5 C          62.6335   84.3015   12.4731 C.3     1  UNL1        0.1081
      6 C          63.0182   84.3158   13.9230 C.3     1  UNL1        0.0938
      7 N          63.5063   85.5847   14.5569 N.3     1  UNL1       -0.2698
      8 C          63.6097   86.8392   13.7410 C.3     1  UNL1        0.0938
      9 C          63.2250   86.8248   12.2912 C.3     1  UNL1        0.1081
     10 C          60.7892   86.3268    8.2866 C.ar    1  UNL1        0.0697
     11 C          61.5829   85.5130    7.3080 C.ar    1  UNL1        0.0104
     12 C          62.7614   84.7135    7.7792 C.ar    1  UNL1        0.0020
     13 C          63.1461   84.7278    9.2290 C.ar    1  UNL1        0.0146
     14 C          62.3523   85.5416   10.2075 C.ar    1  UNL1        0.0486
     15 C          61.1738   86.3411    9.7363 C.ar    1  UNL1        0.0248
     16 N          58.4323   87.9259    7.3442 N.1     1  UNL1       -0.1908
     17 C          59.6107   87.1263    7.8154 C.1     1  UNL1        0.1005
     18 C          62.6632   88.7173   16.8429 C.3     1  UNL1        0.0897
     19 N          63.4405   89.2258   15.6651 N.am    1  UNL1       -0.3009
     20 C          63.8413   90.6697   15.5978 C.2     1  UNL1        0.2458
     21 O          63.4647   91.6051   16.7083 O.2     1  UNL1       -0.2701
     22 H          63.6877   88.6118   14.9363 H       1  UNL1        0.1497
     23 C          64.6187   91.1782   14.4200 C.ar    1  UNL1        0.0534
     24 C          66.0403   91.6236   14.5954 C.ar    1  UNL1        0.0045
     25 C          66.8176   92.1321   13.4176 C.ar    1  UNL1        0.0002
     26 C          66.1734   92.1951   12.0645 C.ar    1  UNL1        0.0005
     27 C          64.7519   91.7498   11.8891 C.ar    1  UNL1        0.0002
     28 C          63.9744   91.2413   13.0669 C.ar    1  UNL1        0.0045
     29 C          66.9507   92.7036   10.8867 C.ar    1  UNL1        0.0070
     30 C          68.0540   91.9755   10.1776 C.ar    1  UNL1        0.0075
     31 C          68.5464   92.8514    9.0639 C.ar    1  UNL1        0.0355
     32 S          67.7475   94.1208    9.0847 S.2     1  UNL1       -0.0859
     33 C          66.7613   94.0295   10.2112 C.ar    1  UNL1        0.0354
@<TRIPOS>BOND
     1    16    17    3
     2    17    10    1
     3    10    11   ar
     4    11    12   ar
     5    12    13   ar
     6    13    14   ar
     7    14     4    1
     8     4     5    1
     9     5     6    1
    10     6     7    1
    11     7     3    1
    12     3     2    1
    13     2     1    1
    14     1    18    1
    15    18    19    1
    16    19    20   am
    17    20    21    2
    18    20    23    1
    19    23    24   ar
    20    24    25   ar
    21    25    26   ar
    22    26    29    1
    23    29    30   ar
    24    30    31   ar
    25    31    32   ar
    26    32    33   ar
    27    26    27   ar
    28    27    28   ar
    29     7     8    1
    30     8     9    1
    31    14    15   ar
    32    15    10   ar
    33     9     4    1
    34    28    23   ar
    35    33    29   ar
    36    19    22    1
@<TRIPOS>MOLECULE
*****
 33 36 0 0 0
SMALL
GASTEIGER

@<TRIPOS>ATOM
      1 C          58.6363   91.0562    5.0365 C.3     1  UNL1        0.0227
      2 C          59.4495   90.0495    5.7951 C.3     1  UNL1        0.0191
      3 C          58.9250   89.4745    7.0774 C.3     1  UNL1        0.0723
      4 N          61.3832   86.4862    9.3746 N.pl3   1  UNL1       -0.3046
      5 C          60.5155   86.0292    8.2397 C.3     1  UNL1        0.1081
      6 C          59.6960   87.0253    7.4739 C.3     1  UNL1        0.0938
      7 N          59.7444   88.4784    7.8431 N.3     1  UNL1       -0.2698
      8 C          60.6122   88.9353    8.9781 C.3     1  UNL1        0.0938
      9 C          61.4316   87.9392    9.7438 C.3     1  UNL1        0.1081
     10 C          62.8927   84.4051   12.3980 C.ar    1  UNL1        0.0697
     11 C          63.8414   83.4980   11.6720 C.ar    1  UNL1        0.0104
     12 C          63.9707   83.5869   10.1802 C.ar    1  UNL1        0.0020
     13 C          63.1514   84.5830    9.4144 C.ar    1  UNL1        0.0146
     14 C          62.2027   85.4901   10.1404 C.ar    1  UNL1        0.0486
     15 C          62.0733   85.4011   11.6322 C.ar    1  UNL1        0.0248
     16 N          62.6340   84.2272   15.3815 N.1     1  UNL1       -0.1908
     17 C          62.7634   84.3162   13.8897 C.1     1  UNL1        0.1005
     18 C          59.1864   92.4288    4.7852 C.3     1  UNL1        0.0897
     19 N          59.7701   92.7692    3.4460 N.am    1  UNL1       -0.3009
     20 C          61.1774   92.3672    3.1171 C.2     1  UNL1        0.2458
     21 O          62.0009   91.6249    4.1274 O.2     1  UNL1       -0.2701
     22 H          59.2296   93.2564    2.7829 H       1  UNL1        0.1497
     23 C          61.7610   92.7076    1.7779 C.ar    1  UNL1        0.0534
     24 C          60.9176   92.5977    0.5423 C.ar    1  UNL1        0.0045
     25 C          61.5013   92.9380   -0.7969 C.ar    1  UNL1        0.0002
     26 C          62.9283   93.3884   -0.9005 C.ar    1  UNL1        0.0005
     27 C          63.7717   93.4984    0.3350 C.ar    1  UNL1        0.0002
     28 C          63.1881   93.1580    1.6743 C.ar    1  UNL1        0.0045
     29 C          63.5120   93.7288   -2.2397 C.ar    1  UNL1        0.0070
     30 C          63.6815   92.7851   -3.3932 C.ar    1  UNL1        0.0075
     31 C          64.3029   93.5457   -4.5270 C.ar    1  UNL1        0.0355
     32 S          64.5174   94.9596   -4.0740 S.2     1  UNL1       -0.0859
     33 C          64.0286   95.0728   -2.6605 C.ar    1  UNL1        0.0354
@<TRIPOS>BOND
     1    16    17    3
     2    17    10    1
     3    10    11   ar
     4    11    12   ar
     5    12    13   ar
     6    13    14   ar
     7    14     4    1
     8     4     5    1
     9     5     6    1
    10     6     7    1
    11     7     3    1
    12     3     2    1
    13     2     1    1
    14     1    18    1
    15    18    19    1
    16    19    20   am
    17    20    21    2
    18    20    23    1
    19    23    24   ar
    20    24    25   ar
    21    25    26   ar
    22    26    29    1
    23    29    30   ar
    24    30    31   ar
    25    31    32   ar
    26    32    33   ar
    27    26    27   ar
    28    27    28   ar
    29     7     8    1
    30     8     9    1
    31    14    15   ar
    32    15    10   ar
    33     9     4    1
    34    28    23   ar
    35    33    29   ar
    36    19    22    1
@<TRIPOS>MOLECULE
*****
 33 36 0 0 0
SMALL
GASTEIGER

@<TRIPOS>ATOM
      1 C          62.5382   86.3265   16.6815 C.3     1  UNL1        0.0227
      2 C          63.4464   85.1351   16.7584 C.3     1  UNL1        0.0191
      3 C          64.3899   84.8372   15.6310 C.3     1  UNL1        0.0723
      4 N          62.9676   85.1246   11.3714 N.pl3   1  UNL1       -0.3046
      5 C          63.1661   86.3712   12.1815 C.3     1  UNL1        0.1081
      6 C          63.6402   86.2755   13.6015 C.3     1  UNL1        0.0938
      7 N          63.9158   84.9330   14.2112 N.3     1  UNL1       -0.2698
      8 C          63.7173   83.6863   13.4010 C.3     1  UNL1        0.0938
      9 C          63.2432   83.7821   11.9811 C.3     1  UNL1        0.1081
     10 C          60.7928   86.1145    8.2028 C.ar    1  UNL1        0.0697
     11 C          61.5452   85.4119    7.1118 C.ar    1  UNL1        0.0104
     12 C          62.7718   84.6135    7.4407 C.ar    1  UNL1        0.0020
     13 C          63.2459   84.5178    8.8605 C.ar    1  UNL1        0.0146
     14 C          62.4935   85.2203    9.9515 C.ar    1  UNL1        0.0486
     15 C          61.2669   86.0187    9.6226 C.ar    1  UNL1        0.0248
     16 N          58.3397   87.7112    7.5450 N.1     1  UNL1       -0.1908
     17 C          59.5662   86.9128    7.8739 C.1     1  UNL1        0.1005
     18 C          63.0851   87.7030   16.9186 C.3     1  UNL1        0.0897
     19 N          63.7491   88.4491   15.7996 N.am    1  UNL1       -0.3009
     20 C          63.7253   89.9488   15.7801 C.2     1  UNL1        0.2458
     21 O          63.0374   90.7023   16.8796 O.2     1  UNL1       -0.2701
     22 H          64.2006   87.9545   15.0779 H       1  UNL1        0.1497
     23 C          64.3894   90.6950   14.6611 C.ar    1  UNL1        0.0534
     24 C          63.7520   90.7345   13.3037 C.ar    1  UNL1        0.0045
     25 C          64.4160   91.4807   12.1847 C.ar    1  UNL1        0.0002
     26 C          65.7175   92.1873   12.4230 C.ar    1  UNL1        0.0005
     27 C          66.3550   92.1478   13.7802 C.ar    1  UNL1        0.0002
     28 C          65.6909   91.4016   14.8993 C.ar    1  UNL1        0.0045
     29 C          66.3816   92.9335   11.3040 C.ar    1  UNL1        0.0070
     30 C          67.3037   92.3455   10.2773 C.ar    1  UNL1        0.0075
     31 C          67.7322   93.4473    9.3539 C.ar    1  UNL1        0.0355
     32 S          67.0749   94.7162    9.8100 S.2     1  UNL1       -0.0859
     33 C          66.2402   94.3987   11.0151 C.ar    1  UNL1        0.0354
@<TRIPOS>BOND
     1    16    17    3
     2    17    10    1
     3    10    11   ar
     4    11    12   ar
     5    12    13   ar
     6    13    14   ar
     7    14     4    1
     8     4     5    1
     9     5     6    1
    10     6     7    1
    11     7     3    1
    12     3     2    1
    13     2     1    1
    14     1    18    1
    15    18    19    1
    16    19    20   am
    17    20    21    2
    18    20    23    1
    19    23    24   ar
    20    24    25   ar
    21    25    26   ar
    22    26    29    1
    23    29    30   ar
    24    30    31   ar
    25    31    32   ar
    26    32    33   ar
    27    26    27   ar
    28    27    28   ar
    29     7     8    1
    30     8     9    1
    31    14    15   ar
    32    15    10   ar
    33     9     4    1
    34    28    23   ar
    35    33    29   ar
    36    19    22    1
@<TRIPOS>MOLECULE
*****
 33 36 0 0 0
SMALL
GASTEIGER

@<TRIPOS>ATOM
      1 C          62.7609   79.5457   12.5665 C.3     1  UNL1        0.0227
      2 C          62.7391   80.3661   13.8222 C.3     1  UNL1        0.0191
      3 C          63.9705   81.1038   14.2575 C.3     1  UNL1        0.0723
      4 N          63.7438   85.4967   15.2066 N.pl3   1  UNL1       -0.3046
      5 C          62.6056   84.5907   15.5724 C.3     1  UNL1        0.1081
      6 C          62.6812   83.1264   15.2560 C.3     1  UNL1        0.0938
      7 N          63.8949   82.5681   14.5739 N.3     1  UNL1       -0.2698
      8 C          65.0330   83.4742   14.2081 C.3     1  UNL1        0.0938
      9 C          64.9575   84.9385   14.5245 C.3     1  UNL1        0.1081
     10 C          64.0652   89.4349   14.8355 C.ar    1  UNL1        0.0697
     11 C          63.5172   89.8897   16.1556 C.ar    1  UNL1        0.0104
     12 C          63.0447   88.8802   17.1595 C.ar    1  UNL1        0.0020
     13 C          63.1202   87.4159   16.8432 C.ar    1  UNL1        0.0146
     14 C          63.6682   86.9611   15.5230 C.ar    1  UNL1        0.0486
     15 C          64.1407   87.9706   14.5192 C.ar    1  UNL1        0.0248
     16 N          65.0101   91.4539   12.8278 N.1     1  UNL1       -0.1908
     17 C          64.5376   90.4444   13.8316 C.1     1  UNL1        0.1005
     18 C          62.8065   80.2229   11.2289 C.3     1  UNL1        0.0897
     19 N          62.3954   81.6598   11.1014 N.am    1  UNL1       -0.3009
     20 C          63.4281   82.7145   10.8342 C.2     1  UNL1        0.2458
     21 O          64.8718   82.3323   10.6947 O.2     1  UNL1       -0.2701
     22 H          61.4478   81.9107   11.1930 H       1  UNL1        0.1497
     23 C          63.0169   84.1514   10.7067 C.ar    1  UNL1        0.0534
     24 C          62.5497   84.9079   11.9148 C.ar    1  UNL1        0.0045
     25 C          62.1386   86.3448   11.7872 C.ar    1  UNL1        0.0002
     26 C          62.1947   87.0252   10.4516 C.ar    1  UNL1        0.0005
     27 C          62.6618   86.2688    9.2435 C.ar    1  UNL1        0.0002
     28 C          63.0730   84.8318    9.3711 C.ar    1  UNL1        0.0045
     29 C          61.7835   88.4621   10.3240 C.ar    1  UNL1        0.0070
     30 C          62.6893   89.6521   10.4411 C.ar    1  UNL1        0.0075
     31 C          61.8600   90.8867   10.2464 C.ar    1  UNL1        0.0355
     32 S          60.4417   90.4598   10.0091 S.2     1  UNL1       -0.0859
     33 C          60.3944   88.9614   10.0570 C.ar    1  UNL1        0.0354
@<TRIPOS>BOND
     1    16    17    3
     2    17    10    1
     3    10    11   ar
     4    11    12   ar
     5    12    13   ar
     6    13    14   ar
     7    14     4    1
     8     4     5    1
     9     5     6    1
    10     6     7    1
    11     7     3    1
    12     3     2    1
    13     2     1    1
    14     1    18    1
    15    18    19    1
    16    19    20   am
    17    20    21    2
    18    20    23    1
    19    23    24   ar
    20    24    25   ar
    21    25    26   ar
    22    26    29    1
    23    29    30   ar
    24    30    31   ar
    25    31    32   ar
    26    32    33   ar
    27    26    27   ar
    28    27    28   ar
    29     7     8    1
    30     8     9    1
    31    14    15   ar
    32    15    10   ar
    33     9     4    1
    34    28    23   ar
    35    33    29   ar
    36    19    22    1
@<TRIPOS>MOLECULE
*****
 33 36 0 0 0
SMALL
GASTEIGER

@<TRIPOS>ATOM
      1 C          59.1090   89.3761    6.5204 C.3     1  UNL1        0.0227
      2 C          60.0591   90.2932    5.8088 C.3     1  UNL1        0.0191
      3 C          59.5353   91.4874    5.0676 C.3     1  UNL1        0.0723
      4 N          61.7178   93.0214    1.4436 N.pl3   1  UNL1       -0.3046
      5 C          62.4637   92.2699    2.5060 C.3     1  UNL1        0.1081
      6 C          61.7362   91.7585    3.7141 C.3     1  UNL1        0.0938
      7 N          60.2628   91.9987    3.8597 N.3     1  UNL1       -0.2698
      8 C          59.5168   92.7503    2.7972 C.3     1  UNL1        0.0938
      9 C          60.2443   93.2616    1.5892 C.3     1  UNL1        0.1081
     10 C          64.3357   94.9772   -0.8083 C.ar    1  UNL1        0.0697
     11 C          63.9002   94.5555   -2.1803 C.ar    1  UNL1        0.0104
     12 C          62.7373   93.6225   -2.3444 C.ar    1  UNL1        0.0020
     13 C          62.0098   93.1111   -1.1364 C.ar    1  UNL1        0.0146
     14 C          62.4453   93.5328    0.2356 C.ar    1  UNL1        0.0486
     15 C          63.6082   94.4659    0.3996 C.ar    1  UNL1        0.0248
     16 N          66.6616   96.8433   -0.4802 N.1     1  UNL1       -0.1908
     17 C          65.4987   95.9103   -0.6442 C.1     1  UNL1        0.1005
     18 C          59.4862   88.7888    7.8481 C.3     1  UNL1        0.0897
     19 N          60.3981   89.5429    8.7699 N.am    1  UNL1       -0.3009
     20 C          61.4569   88.8119    9.5410 C.2     1  UNL1        0.2458
     21 O          61.6037   87.3267    9.3903 O.2     1  UNL1       -0.2701
     22 H          60.3018   90.5177    8.8687 H       1  UNL1        0.1497
     23 C          62.3689   89.5660   10.4627 C.ar    1  UNL1        0.0534
     24 C          62.6531   89.0350   11.8366 C.ar    1  UNL1        0.0045
     25 C          63.5650   89.7891   12.7583 C.ar    1  UNL1        0.0002
     26 C          64.1928   91.0743   12.3063 C.ar    1  UNL1        0.0005
     27 C          63.9086   91.6053   10.9325 C.ar    1  UNL1        0.0002
     28 C          62.9966   90.8512   10.0107 C.ar    1  UNL1        0.0045
     29 C          65.1047   91.8284   13.2280 C.ar    1  UNL1        0.0070
     30 C          65.9047   93.0470   12.8743 C.ar    1  UNL1        0.0075
     31 C          66.6712   93.4681   14.0930 C.ar    1  UNL1        0.0355
     32 S          66.3449   92.5097   15.1999 S.2     1  UNL1       -0.0859
     33 C          65.3768   91.4963   14.6653 C.ar    1  UNL1        0.0354
@<TRIPOS>BOND
     1    16    17    3
     2    17    10    1
     3    10    11   ar
     4    11    12   ar
     5    12    13   ar
     6    13    14   ar
     7    14     4    1
     8     4     5    1
     9     5     6    1
    10     6     7    1
    11     7     3    1
    12     3     2    1
    13     2     1    1
    14     1    18    1
    15    18    19    1
    16    19    20   am
    17    20    21    2
    18    20    23    1
    19    23    24   ar
    20    24    25   ar
    21    25    26   ar
    22    26    29    1
    23    29    30   ar
    24    30    31   ar
    25    31    32   ar
    26    32    33   ar
    27    26    27   ar
    28    27    28   ar
    29     7     8    1
    30     8     9    1
    31    14    15   ar
    32    15    10   ar
    33     9     4    1
    34    28    23   ar
    35    33    29   ar
    36    19    22    1
@<TRIPOS>MOLECULE
*****
 33 36 0 0 0
SMALL
GASTEIGER

@<TRIPOS>ATOM
      1 C          59.1507   87.5934    8.0502 C.3     1  UNL1        0.0227
      2 C          59.7892   86.4279    7.3547 C.3     1  UNL1        0.0191
      3 C          61.2487   86.1439    7.5528 C.3     1  UNL1        0.0723
      4 N          62.7679   84.8905   11.5989 N.pl3   1  UNL1       -0.3046
      5 C          61.6312   85.8634   11.4930 C.3     1  UNL1        0.1081
      6 C          61.1248   86.2813   10.1443 C.3     1  UNL1        0.0938
      7 N          61.7551   85.7261    8.9015 N.3     1  UNL1       -0.2698
      8 C          62.8918   84.7531    9.0074 C.3     1  UNL1        0.0938
      9 C          63.3982   84.3353   10.3561 C.3     1  UNL1        0.1081
     10 C          63.3041   84.7640   15.5291 C.ar    1  UNL1        0.0697
     11 C          64.2872   83.6370   15.6449 C.ar    1  UNL1        0.0104
     12 C          64.7638   82.9278   14.4121 C.ar    1  UNL1        0.0020
     13 C          64.2574   83.3456   13.0634 C.ar    1  UNL1        0.0146
     14 C          63.2744   84.4726   12.9476 C.ar    1  UNL1        0.0486
     15 C          62.7977   85.1818   14.1804 C.ar    1  UNL1        0.0248
     16 N          62.3508   86.1824   17.9947 N.1     1  UNL1       -0.1908
     17 C          62.8275   85.4732   16.7619 C.1     1  UNL1        0.1005
     18 C          59.6725   88.9810    7.8216 C.3     1  UNL1        0.0897
     19 N          60.8374   89.4853    8.6206 N.am    1  UNL1       -0.3009
     20 C          60.6886   89.7256   10.0938 C.2     1  UNL1        0.2458
     21 O          59.3748   89.4616   10.7678 O.2     1  UNL1       -0.2701
     22 H          61.6997   89.6586    8.1783 H       1  UNL1        0.1497
     23 C          61.8535   90.2299   10.8929 C.ar    1  UNL1        0.0534
     24 C          62.8608   91.1416   10.2570 C.ar    1  UNL1        0.0045
     25 C          64.0258   91.6459   11.0561 C.ar    1  UNL1        0.0002
     26 C          64.1834   91.2386   12.4911 C.ar    1  UNL1        0.0005
     27 C          63.1762   90.3270   13.1270 C.ar    1  UNL1        0.0002
     28 C          62.0112   89.8227   12.3279 C.ar    1  UNL1        0.0045
     29 C          65.3483   91.7429   13.2902 C.ar    1  UNL1        0.0070
     30 C          65.9464   91.0768   14.4938 C.ar    1  UNL1        0.0075
     31 C          67.0874   91.9241   14.9735 C.ar    1  UNL1        0.0355
     32 S          67.1946   93.1139   14.0663 S.2     1  UNL1       -0.0859
     33 C          66.1199   93.0020   13.0260 C.ar    1  UNL1        0.0354
@<TRIPOS>BOND
     1    16    17    3
     2    17    10    1
     3    10    11   ar
     4    11    12   ar
     5    12    13   ar
     6    13    14   ar
     7    14     4    1
     8     4     5    1
     9     5     6    1
    10     6     7    1
    11     7     3    1
    12     3     2    1
    13     2     1    1
    14     1    18    1
    15    18    19    1
    16    19    20   am
    17    20    21    2
    18    20    23    1
    19    23    24   ar
    20    24    25   ar
    21    25    26   ar
    22    26    29    1
    23    29    30   ar
    24    30    31   ar
    25    31    32   ar
    26    32    33   ar
    27    26    27   ar
    28    27    28   ar
    29     7     8    1
    30     8     9    1
    31    14    15   ar
    32    15    10   ar
    33     9     4    1
    34    28    23   ar
    35    33    29   ar
    36    19    22    1
@<TRIPOS>MOLECULE
*****
 33 36 0 0 0
SMALL
GASTEIGER

@<TRIPOS>ATOM
      1 C          59.1357   89.0959    6.3466 C.3     1  UNL1        0.0227
      2 C          59.5277   88.3285    7.5744 C.3     1  UNL1        0.0191
      3 C          60.2990   89.0062    8.6679 C.3     1  UNL1        0.0723
      4 N          62.4267   86.5462   11.7778 N.pl3   1  UNL1       -0.3046
      5 C          62.7213   88.0114   11.6500 C.3     1  UNL1        0.1081
      6 C          62.0121   88.8315   10.6133 C.3     1  UNL1        0.0938
      7 N          61.0082   88.1862    9.7045 N.3     1  UNL1       -0.2698
      8 C          60.7135   86.7210    9.8324 C.3     1  UNL1        0.0938
      9 C          61.4227   85.9010   10.8691 C.3     1  UNL1        0.1081
     10 C          63.6427   83.4207   13.8996 C.ar    1  UNL1        0.0697
     11 C          64.5542   84.0861   14.8877 C.ar    1  UNL1        0.0104
     12 C          64.7565   85.5716   14.8392 C.ar    1  UNL1        0.0020
     13 C          64.0474   86.3917   13.8026 C.ar    1  UNL1        0.0146
     14 C          63.1359   85.7262   12.8145 C.ar    1  UNL1        0.0486
     15 C          62.9336   84.2407   12.8630 C.ar    1  UNL1        0.0248
     16 N          63.2381   80.4496   13.9967 N.1     1  UNL1       -0.1908
     17 C          63.4404   81.9351   13.9481 C.1     1  UNL1        0.1005
     18 C          59.3641   90.5770    6.2830 C.3     1  UNL1        0.0897
     19 N          60.2602   91.1530    5.2270 N.am    1  UNL1       -0.3009
     20 C          59.6970   92.0754    4.1868 C.2     1  UNL1        0.2458
     21 O          58.2376   92.4217    4.2026 O.2     1  UNL1       -0.2701
     22 H          61.2181   90.9256    5.2167 H       1  UNL1        0.1497
     23 C          60.5932   92.6514    3.1308 C.ar    1  UNL1        0.0534
     24 C          60.0835   93.7297    2.2210 C.ar    1  UNL1        0.0045
     25 C          60.9796   94.3056    1.1651 C.ar    1  UNL1        0.0002
     26 C          62.3854   93.8034    1.0188 C.ar    1  UNL1        0.0005
     27 C          62.8951   92.7251    1.9285 C.ar    1  UNL1        0.0002
     28 C          61.9990   92.1491    2.9845 C.ar    1  UNL1        0.0045
     29 C          63.2816   94.3794   -0.0372 C.ar    1  UNL1        0.0070
     30 C          64.3573   95.4017    0.1809 C.ar    1  UNL1        0.0075
     31 C          64.9999   95.6884   -1.1438 C.ar    1  UNL1        0.0355
     32 S          64.3213   94.8431   -2.1807 S.2     1  UNL1       -0.0859
     33 C          63.2594   94.0341   -1.4968 C.ar    1  UNL1        0.0354
@<TRIPOS>BOND
     1    16    17    3
     2    17    10    1
     3    10    11   ar
     4    11    12   ar
     5    12    13   ar
     6    13    14   ar
     7    14     4    1
     8     4     5    1
     9     5     6    1
    10     6     7    1
    11     7     3    1
    12     3     2    1
    13     2     1    1
    14     1    18    1
    15    18    19    1
    16    19    20   am
    17    20    21    2
    18    20    23    1
    19    23    24   ar
    20    24    25   ar
    21    25    26   ar
    22    26    29    1
    23    29    30   ar
    24    30    31   ar
    25    31    32   ar
    26    32    33   ar
    27    26    27   ar
    28    27    28   ar
    29     7     8    1
    30     8     9    1
    31    14    15   ar
    32    15    10   ar
    33     9     4    1
    34    28    23   ar
    35    33    29   ar
    36    19    22    1
@<TRIPOS>MOLECULE
*****
 33 36 0 0 0
SMALL
GASTEIGER

@<TRIPOS>ATOM
      1 C          59.5795   89.1854    6.3374 C.3     1  UNL1        0.0227
      2 C          58.5607   90.0706    5.6828 C.3     1  UNL1        0.0191
      3 C          58.8603   91.5239    5.4630 C.3     1  UNL1        0.0723
      4 N          61.6378   92.7723    2.1499 N.pl3   1  UNL1       -0.3046
      5 C          60.1983   93.1930    2.1203 C.3     1  UNL1        0.1081
      6 C          59.2724   92.7768    3.2247 C.3     1  UNL1        0.0938
      7 N          59.7861   91.9400    4.3586 N.3     1  UNL1       -0.2698
      8 C          61.2256   91.5193    4.3882 C.3     1  UNL1        0.0938
      9 C          62.1514   91.9354    3.2838 C.3     1  UNL1        0.1081
     10 C          62.9674   93.7607   -1.4564 C.ar    1  UNL1        0.0697
     11 C          64.4153   94.0206   -1.1633 C.ar    1  UNL1        0.0104
     12 C          64.9374   93.8645    0.2342 C.ar    1  UNL1        0.0020
     13 C          64.0116   93.4483    1.3386 C.ar    1  UNL1        0.0146
     14 C          62.5637   93.1884    1.0455 C.ar    1  UNL1        0.0486
     15 C          62.0416   93.3446   -0.3520 C.ar    1  UNL1        0.0248
     16 N          61.9232   94.0731   -4.2514 N.1     1  UNL1       -0.1908
     17 C          62.4453   93.9169   -2.8539 C.1     1  UNL1        0.1005
     18 C          59.5746   89.0104    7.8271 C.3     1  UNL1        0.0897
     19 N          60.6274   89.6748    8.6638 N.am    1  UNL1       -0.3009
     20 C          61.0635   89.0499    9.9559 C.2     1  UNL1        0.2458
     21 O          60.4468   87.7606   10.4112 O.2     1  UNL1       -0.2701
     22 H          61.0322   90.5210    8.3650 H       1  UNL1        0.1497
     23 C          62.1164   89.7143   10.7926 C.ar    1  UNL1        0.0534
     24 C          62.8014   90.9516   10.2926 C.ar    1  UNL1        0.0045
     25 C          63.8542   91.6160   11.1293 C.ar    1  UNL1        0.0002
     26 C          64.2221   91.0431   12.4659 C.ar    1  UNL1        0.0005
     27 C          63.5371   89.8059   12.9659 C.ar    1  UNL1        0.0002
     28 C          62.4842   89.1414   12.1292 C.ar    1  UNL1        0.0045
     29 C          65.2749   91.7075   13.3026 C.ar    1  UNL1        0.0070
     30 C          65.8101   91.2034   14.6101 C.ar    1  UNL1        0.0075
     31 C          66.8434   92.1770   15.0943 C.ar    1  UNL1        0.0355
     32 S          66.9468   93.2829   14.0860 S.2     1  UNL1       -0.0859
     33 C          65.9774   92.9927   12.9788 C.ar    1  UNL1        0.0354
@<TRIPOS>BOND
     1    16    17    3
     2    17    10    1
     3    10    11   ar
     4    11    12   ar
     5    12    13   ar
     6    13    14   ar
     7    14     4    1
     8     4     5    1
     9     5     6    1
    10     6     7    1
    11     7     3    1
    12     3     2    1
    13     2     1    1
    14     1    18    1
    15    18    19    1
    16    19    20   am
    17    20    21    2
    18    20    23    1
    19    23    24   ar
    20    24    25   ar
    21    25    26   ar
    22    26    29    1
    23    29    30   ar
    24    30    31   ar
    25    31    32   ar
    26    32    33   ar
    27    26    27   ar
    28    27    28   ar
    29     7     8    1
    30     8     9    1
    31    14    15   ar
    32    15    10   ar
    33     9     4    1
    34    28    23   ar
    35    33    29   ar
    36    19    22    1
@<TRIPOS>MOLECULE
*****
 33 36 0 0 0
SMALL
GASTEIGER

@<TRIPOS>ATOM
      1 C          58.1178   91.0456    5.1800 C.3     1  UNL1        0.0227
      2 C          58.7289   92.0243    4.2215 C.3     1  UNL1        0.0191
      3 C          60.2095   92.2640    4.2365 C.3     1  UNL1        0.0723
      4 N          62.2909   93.7192    0.5217 N.pl3   1  UNL1       -0.3046
      5 C          60.9002   94.1864    0.8340 C.3     1  UNL1        0.1081
      6 C          60.2064   93.7014    2.0723 C.3     1  UNL1        0.0938
      7 N          60.9033   92.7491    2.9983 N.3     1  UNL1       -0.2698
      8 C          62.2941   92.2818    2.6859 C.3     1  UNL1        0.0938
      9 C          62.9879   92.7669    1.4477 C.3     1  UNL1        0.1081
     10 C          63.7822   93.7957   -3.1553 C.ar    1  UNL1        0.0697
     11 C          64.3724   95.1741   -3.1932 C.ar    1  UNL1        0.0104
     12 C          64.2689   96.0676   -1.9928 C.ar    1  UNL1        0.0020
     13 C          63.5751   95.5826   -0.7545 C.ar    1  UNL1        0.0146
     14 C          62.9848   94.2042   -0.7166 C.ar    1  UNL1        0.0486
     15 C          63.0884   93.3107   -1.9171 C.ar    1  UNL1        0.0248
     16 N          63.9893   92.0088   -5.5562 N.1     1  UNL1       -0.1908
     17 C          63.8858   92.9022   -4.3557 C.1     1  UNL1        0.1005
     18 C          58.9093   89.8608    5.6486 C.3     1  UNL1        0.0897
     19 N          59.7716   89.9709    6.8711 N.am    1  UNL1       -0.3009
     20 C          59.6395   88.9641    7.9752 C.2     1  UNL1        0.2458
     21 O          58.6451   87.8473    7.8569 O.2     1  UNL1       -0.2701
     22 H          60.4242   90.7039    6.9487 H       1  UNL1        0.1497
     23 C          60.5017   89.0742    9.1976 C.ar    1  UNL1        0.0534
     24 C          61.5953   88.0756    9.4365 C.ar    1  UNL1        0.0045
     25 C          62.4575   88.1857   10.6590 C.ar    1  UNL1        0.0002
     26 C          62.2263   89.2943   11.6425 C.ar    1  UNL1        0.0005
     27 C          61.1328   90.2929   11.4037 C.ar    1  UNL1        0.0002
     28 C          60.2705   90.1829   10.1812 C.ar    1  UNL1        0.0045
     29 C          63.0885   89.4044   12.8650 C.ar    1  UNL1        0.0070
     30 C          63.8510   88.2851   13.5098 C.ar    1  UNL1        0.0075
     31 C          64.5734   88.8421   14.7006 C.ar    1  UNL1        0.0355
     32 S          64.2574   90.3056   14.7917 S.2     1  UNL1       -0.0859
     33 C          63.3397   90.6532   13.6573 C.ar    1  UNL1        0.0354
@<TRIPOS>BOND
     1    16    17    3
     2    17    10    1
     3    10    11   ar
     4    11    12   ar
     5    12    13   ar
     6    13    14   ar
     7    14     4    1
     8     4     5    1
     9     5     6    1
    10     6     7    1
    11     7     3    1
    12     3     2    1
    13     2     1    1
    14     1    18    1
    15    18    19    1
    16    19    20   am
    17    20    21    2
    18    20    23    1
    19    23    24   ar
    20    24    25   ar
    21    25    26   ar
    22    26    29    1
    23    29    30   ar
    24    30    31   ar
    25    31    32   ar
    26    32    33   ar
    27    26    27   ar
    28    27    28   ar
    29     7     8    1
    30     8     9    1
    31    14    15   ar
    32    15    10   ar
    33     9     4    1
    34    28    23   ar
    35    33    29   ar
    36    19    22    1
