@<TRIPOS>MOLECULE
*****
 40 44 0 0 0
SMALL
GASTEIGER

@<TRIPOS>ATOM
      1 C          63.8803   91.2369   11.3242 C.ar    1  UNL1        0.0830
      2 C          64.3282   92.2919   10.3565 C.ar    1  UNL1        0.0222
      3 C          65.2312   93.2394   11.0890 C.ar    1  UNL1        0.0393
      4 C          65.3414   92.7701   12.5095 C.ar    1  UNL1        0.1153
      5 C          66.0942   93.3099   13.6893 C.ar    1  UNL1        0.1451
      6 N          66.9291   94.5475   13.5439 N.pl3   1  UNL1       -0.3414
      7 N          66.0120   92.6119   15.0144 N.ar    1  UNL1       -0.2065
      8 C          65.1770   91.3743   15.1598 C.ar    1  UNL1        0.2211
      9 N          64.4243   90.8346   13.9800 N.ar    1  UNL1       -0.1422
     10 N          64.5065   91.5325   12.6548 N.ar    1  UNL1       -0.2254
     11 H          66.9830   95.0056   12.6742 H       1  UNL1        0.1438
     12 H          67.4231   94.9017   14.3183 H       1  UNL1        0.1438
     13 C          62.3365   87.5811   11.2769 C.ar    1  UNL1        0.0540
     14 C          61.1391   87.7904   10.3981 C.ar    1  UNL1        0.0149
     15 C          60.8553   89.1485    9.8280 C.ar    1  UNL1        0.0013
     16 C          61.7690   90.2973   10.1367 C.ar    1  UNL1        0.0016
     17 C          62.9666   90.0881   11.0155 C.ar    1  UNL1        0.0189
     18 C          63.2503   88.7300   11.5855 C.ar    1  UNL1        0.0164
     19 C          63.0505   80.9185   12.8096 C.3     1  UNL1        0.0948
     20 C          63.4716   82.1487   13.5574 C.2     1  UNL1        0.2264
     21 O          64.1765   82.0208   14.8752 O.2     1  UNL1       -0.2748
     22 N          63.1879   83.5068   12.9873 N.am    1  UNL1       -0.2730
     23 C          62.4830   83.6347   11.6694 C.3     1  UNL1        0.1156
     24 C          62.1992   84.9928   11.0993 C.3     1  UNL1        0.1197
     25 N          62.6203   86.2230   11.8470 N.am    1  UNL1       -0.2556
     26 C          63.3252   86.0952   13.1648 C.2     1  UNL1        0.2454
     27 O          63.7463   87.3254   13.9126 O.2     1  UNL1       -0.2728
     28 C          63.6090   84.7370   13.7349 C.3     1  UNL1        0.1294
     29 C          64.1999   85.5997   14.8104 C.3     1  UNL1        0.0293
     30 C          64.0980   83.6785   14.6786 C.3     1  UNL1        0.0293
     31 C          65.9057   94.4447   10.5039 C.ar    1  UNL1        0.0813
     32 C          65.2605   95.7714   10.2329 C.ar    1  UNL1        0.0412
     33 C          66.2998   96.6816    9.6485 C.ar    1  UNL1        0.1217
     34 N          67.5873   95.9173    9.5584 N.ar    1  UNL1       -0.1674
     35 N          67.3438   94.5348   10.0870 N.ar    1  UNL1       -0.2420
     36 C          68.3599   93.4356   10.1821 C.3     1  UNL1        0.2301
     37 C          68.1756   92.1734    9.3928 C.3     1  UNL1        0.4200
     38 F          67.9913   90.9113    8.6035 F       1  UNL1       -0.1679
     39 F          68.2996   92.9530    8.1172 F       1  UNL1       -0.1679
     40 F          68.0517   91.3939   10.6683 F       1  UNL1       -0.1679
@<TRIPOS>BOND
     1    19    20    1
     2    20    21    2
     3    20    22   am
     4    22    23    1
     5    23    24    1
     6    24    25    1
     7    25    13    1
     8    13    14   ar
     9    14    15   ar
    10    15    16   ar
    11    16    17   ar
    12    17     1    1
    13     1     2   ar
    14     2     3   ar
    15     3    31    1
    16    31    32   ar
    17    32    33   ar
    18    33    34   ar
    19    34    35   ar
    20    35    36    1
    21    36    37    1
    22    37    38    1
    23    37    39    1
    24    37    40    1
    25     3     4   ar
    26     4     5   ar
    27     5     6    1
    28     5     7   ar
    29     7     8   ar
    30     8     9   ar
    31     9    10   ar
    32    17    18   ar
    33    25    26   am
    34    26    27    2
    35    26    28    1
    36    28    29    1
    37    28    30    1
    38    28    22    1
    39    18    13   ar
    40    10     1   ar
    41    35    31   ar
    42    10     4   ar
    43     6    11    1
    44     6    12    1
@<TRIPOS>MOLECULE
*****
 40 44 0 0 0
SMALL
GASTEIGER

@<TRIPOS>ATOM
      1 C          63.5699   90.9002   11.6142 C.ar    1  UNL1        0.0830
      2 C          64.1672   91.8431   10.6122 C.ar    1  UNL1        0.0222
      3 C          65.1071   92.7582   11.3396 C.ar    1  UNL1        0.0393
      4 C          65.0906   92.3809   12.7913 C.ar    1  UNL1        0.1153
      5 C          65.8180   92.9345   13.9806 C.ar    1  UNL1        0.1451
      6 N          66.7681   94.0828   13.8108 N.pl3   1  UNL1       -0.3414
      7 N          65.5953   92.3399   15.3395 N.ar    1  UNL1       -0.2065
      8 C          64.6453   91.1916   15.5092 C.ar    1  UNL1        0.2211
      9 N          63.9179   90.6380   14.3200 N.ar    1  UNL1       -0.1422
     10 N          64.1406   91.2326   12.9610 N.ar    1  UNL1       -0.2254
     11 H          66.9143   94.4731   12.9189 H       1  UNL1        0.1438
     12 H          67.2455   94.4462   14.5914 H       1  UNL1        0.1438
     13 C          61.9316   87.2987   11.3060 C.ar    1  UNL1        0.0540
     14 C          60.5889   87.6459   10.7346 C.ar    1  UNL1        0.0149
     15 C          60.2398   89.0780   10.4565 C.ar    1  UNL1        0.0013
     16 C          61.2334   90.1628   10.7497 C.ar    1  UNL1        0.0016
     17 C          62.5762   89.8155   11.3210 C.ar    1  UNL1        0.0189
     18 C          62.9253   88.3835   11.5992 C.ar    1  UNL1        0.0164
     19 C          63.1581   81.0118   13.8002 C.3     1  UNL1        0.0948
     20 C          63.3281   81.5705   12.4185 C.2     1  UNL1        0.2264
     21 O          63.8472   80.6971   11.3150 O.2     1  UNL1       -0.2748
     22 N          62.9790   83.0025   12.1403 N.am    1  UNL1       -0.2730
     23 C          62.4599   83.8759   13.2439 C.3     1  UNL1        0.1156
     24 C          62.1108   85.3079   12.9657 C.3     1  UNL1        0.1197
     25 N          62.2808   85.8666   11.5841 N.am    1  UNL1       -0.2556
     26 C          62.7998   84.9932   10.4806 C.2     1  UNL1        0.2454
     27 O          62.9698   85.5519    9.0989 O.2     1  UNL1       -0.2728
     28 C          63.1490   83.5612   10.7587 C.3     1  UNL1        0.1294
     29 C          63.4801   83.6310    9.2974 C.3     1  UNL1        0.0293
     30 C          63.6131   82.1534   10.5293 C.3     1  UNL1        0.0293
     31 C          65.9206   93.8576   10.7236 C.ar    1  UNL1        0.0813
     32 C          65.4707   95.2718   10.5065 C.ar    1  UNL1        0.0412
     33 C          66.5989   96.0241    9.8652 C.ar    1  UNL1        0.1217
     34 N          67.7463   95.0746    9.6861 N.ar    1  UNL1       -0.1674
     35 N          67.3271   93.7356   10.2166 N.ar    1  UNL1       -0.2420
     36 C          68.1670   92.4929   10.2365 C.3     1  UNL1        0.2301
     37 C          68.9142   92.0728    9.0056 C.3     1  UNL1        0.4200
     38 F          69.6614   91.6527    7.7747 F       1  UNL1       -0.1679
     39 F          67.8337   91.0818    8.6881 F       1  UNL1       -0.1679
     40 F          69.9945   93.0637    9.3232 F       1  UNL1       -0.1679
@<TRIPOS>BOND
     1    19    20    1
     2    20    21    2
     3    20    22   am
     4    22    23    1
     5    23    24    1
     6    24    25    1
     7    25    13    1
     8    13    14   ar
     9    14    15   ar
    10    15    16   ar
    11    16    17   ar
    12    17     1    1
    13     1     2   ar
    14     2     3   ar
    15     3    31    1
    16    31    32   ar
    17    32    33   ar
    18    33    34   ar
    19    34    35   ar
    20    35    36    1
    21    36    37    1
    22    37    38    1
    23    37    39    1
    24    37    40    1
    25     3     4   ar
    26     4     5   ar
    27     5     6    1
    28     5     7   ar
    29     7     8   ar
    30     8     9   ar
    31     9    10   ar
    32    17    18   ar
    33    25    26   am
    34    26    27    2
    35    26    28    1
    36    28    29    1
    37    28    30    1
    38    28    22    1
    39    18    13   ar
    40    10     1   ar
    41    35    31   ar
    42    10     4   ar
    43     6    11    1
    44     6    12    1
@<TRIPOS>MOLECULE
*****
 40 44 0 0 0
SMALL
GASTEIGER

@<TRIPOS>ATOM
      1 C          62.4927   85.4398   11.8806 C.ar    1  UNL1        0.0830
      2 C          62.2894   84.1812   11.0903 C.ar    1  UNL1        0.0222
      3 C          62.8606   83.0409   11.8798 C.ar    1  UNL1        0.0393
      4 C          63.4169   83.5948   13.1580 C.ar    1  UNL1        0.1153
      5 C          64.1012   82.9406   14.3215 C.ar    1  UNL1        0.1451
      6 N          64.3286   81.4579   14.3211 N.pl3   1  UNL1       -0.3414
      7 N          64.5580   83.7691   15.4855 N.ar    1  UNL1       -0.2065
      8 C          64.3306   85.2518   15.4859 C.ar    1  UNL1        0.2211
      9 N          63.6463   85.9059   14.3224 N.ar    1  UNL1       -0.1422
     10 N          63.1895   85.0774   13.1585 N.ar    1  UNL1       -0.2254
     11 H          64.0288   80.9142   13.5571 H       1  UNL1        0.1438
     12 H          64.7777   81.0286   15.0847 H       1  UNL1        0.1438
     13 C          62.5657   89.3637   11.2905 C.ar    1  UNL1        0.0540
     14 C          61.2329   89.5769   10.6361 C.ar    1  UNL1        0.0149
     15 C          60.3201   88.4110   10.3965 C.ar    1  UNL1        0.0013
     16 C          60.7399   87.0320   10.8113 C.ar    1  UNL1        0.0016
     17 C          62.0728   86.8189   11.4658 C.ar    1  UNL1        0.0189
     18 C          62.9856   87.9847   11.7053 C.ar    1  UNL1        0.0164
     19 C          66.4648   95.0231   11.1552 C.3     1  UNL1        0.0948
     20 C          66.2172   94.0271   12.2492 C.2     1  UNL1        0.2264
     21 O          66.8826   94.1970   13.5828 O.2     1  UNL1       -0.2748
     22 N          65.3044   92.8613   12.0095 N.am    1  UNL1       -0.2730
     23 C          64.6390   92.6914   10.6759 C.3     1  UNL1        0.1156
     24 C          63.7262   91.5255   10.4363 C.3     1  UNL1        0.1197
     25 N          63.4786   90.5296   11.5302 N.am    1  UNL1       -0.2556
     26 C          64.1439   90.6995   12.8638 C.2     1  UNL1        0.2454
     27 O          63.8963   89.7035   13.9578 O.2     1  UNL1       -0.2728
     28 C          65.0568   91.8653   13.1034 C.3     1  UNL1        0.1294
     29 C          65.1357   91.1932   14.4421 C.3     1  UNL1        0.0293
     30 C          65.9971   92.7977   13.8080 C.3     1  UNL1        0.0293
     31 C          62.8734   81.5997   11.4642 C.ar    1  UNL1        0.0813
     32 C          63.2695   81.0743   10.1163 C.ar    1  UNL1        0.0412
     33 C          63.1332   79.5807   10.1424 C.ar    1  UNL1        0.1217
     34 N          62.6527   79.1831   11.5067 N.ar    1  UNL1       -0.1674
     35 N          62.4921   80.4309   12.3235 N.ar    1  UNL1       -0.2420
     36 C          62.0312   80.4979   13.7494 C.3     1  UNL1        0.2301
     37 C          60.5713   80.6484   14.0595 C.3     1  UNL1        0.4200
     38 F          59.1115   80.7989   14.3696 F       1  UNL1       -0.1679
     39 F          60.3588   79.1930   13.7649 F       1  UNL1       -0.1679
     40 F          60.7839   82.1037   14.3540 F       1  UNL1       -0.1679
@<TRIPOS>BOND
     1    19    20    1
     2    20    21    2
     3    20    22   am
     4    22    23    1
     5    23    24    1
     6    24    25    1
     7    25    13    1
     8    13    14   ar
     9    14    15   ar
    10    15    16   ar
    11    16    17   ar
    12    17     1    1
    13     1     2   ar
    14     2     3   ar
    15     3    31    1
    16    31    32   ar
    17    32    33   ar
    18    33    34   ar
    19    34    35   ar
    20    35    36    1
    21    36    37    1
    22    37    38    1
    23    37    39    1
    24    37    40    1
    25     3     4   ar
    26     4     5   ar
    27     5     6    1
    28     5     7   ar
    29     7     8   ar
    30     8     9   ar
    31     9    10   ar
    32    17    18   ar
    33    25    26   am
    34    26    27    2
    35    26    28    1
    36    28    29    1
    37    28    30    1
    38    28    22    1
    39    18    13   ar
    40    10     1   ar
    41    35    31   ar
    42    10     4   ar
    43     6    11    1
    44     6    12    1
@<TRIPOS>MOLECULE
*****
 40 44 0 0 0
SMALL
GASTEIGER

@<TRIPOS>ATOM
      1 C          62.4814   85.8827   12.1987 C.ar    1  UNL1        0.0830
      2 C          62.0800   84.5039   11.7655 C.ar    1  UNL1        0.0222
      3 C          62.5443   83.5354   12.8126 C.ar    1  UNL1        0.0393
      4 C          63.2327   84.3157   13.8931 C.ar    1  UNL1        0.1153
      5 C          63.8899   83.8927   15.1733 C.ar    1  UNL1        0.1451
      6 N          63.9288   82.4420   15.5527 N.pl3   1  UNL1       -0.3414
      7 N          64.5082   84.9204   16.0742 N.ar    1  UNL1       -0.2065
      8 C          64.4693   86.3711   15.6947 C.ar    1  UNL1        0.2211
      9 N          63.8121   86.7941   14.4145 N.ar    1  UNL1       -0.1422
     10 N          63.1938   85.7664   13.5136 N.ar    1  UNL1       -0.2254
     11 H          63.5230   81.7675   14.9615 H       1  UNL1        0.1438
     12 H          64.3601   82.1643   16.3930 H       1  UNL1        0.1438
     13 C          62.8091   89.6331   10.9428 C.ar    1  UNL1        0.0540
     14 C          61.6877   89.6982    9.9488 C.ar    1  UNL1        0.0149
     15 C          60.8308   88.4915    9.7047 C.ar    1  UNL1        0.0013
     16 C          61.0953   87.2196   10.4547 C.ar    1  UNL1        0.0016
     17 C          62.2168   87.1545   11.4488 C.ar    1  UNL1        0.0189
     18 C          63.0737   88.3612   11.6928 C.ar    1  UNL1        0.0164
     19 C          66.4456   95.4650   10.8255 C.3     1  UNL1        0.0948
     20 C          66.2368   94.4599   11.9191 C.2     1  UNL1        0.2264
     21 O          66.8848   94.6615   13.2568 O.2     1  UNL1       -0.2748
     22 N          65.3799   93.2532   11.6750 N.am    1  UNL1       -0.2730
     23 C          64.7318   93.0516   10.3374 C.3     1  UNL1        0.1156
     24 C          63.8749   91.8449   10.0933 C.3     1  UNL1        0.1197
     25 N          63.6660   90.8398   11.1869 N.am    1  UNL1       -0.2556
     26 C          64.3141   91.0413   12.5245 C.2     1  UNL1        0.2454
     27 O          64.1052   90.0362   13.6182 O.2     1  UNL1       -0.2728
     28 C          65.1710   92.2480   12.7686 C.3     1  UNL1        0.1294
     29 C          65.2719   91.5815   14.1087 C.3     1  UNL1        0.0293
     30 C          66.0629   93.2233   13.4781 C.3     1  UNL1        0.0293
     31 C          62.3538   82.0479   12.7843 C.ar    1  UNL1        0.0813
     32 C          61.6446   81.2299   13.8225 C.ar    1  UNL1        0.0412
     33 C          61.6914   79.7935   13.3928 C.ar    1  UNL1        0.1217
     34 N          62.4297   79.7239   12.0888 N.ar    1  UNL1       -0.1674
     35 N          62.8390   81.1171   11.7128 N.ar    1  UNL1       -0.2420
     36 C          63.6000   81.5103   10.4814 C.3     1  UNL1        0.2301
     37 C          64.4678   82.7337   10.4947 C.3     1  UNL1        0.4200
     38 F          65.3356   83.9571   10.5080 F       1  UNL1       -0.1679
     39 F          65.1895   82.2086   11.7003 F       1  UNL1       -0.1679
     40 F          63.7460   83.2587    9.2891 F       1  UNL1       -0.1679
@<TRIPOS>BOND
     1    19    20    1
     2    20    21    2
     3    20    22   am
     4    22    23    1
     5    23    24    1
     6    24    25    1
     7    25    13    1
     8    13    14   ar
     9    14    15   ar
    10    15    16   ar
    11    16    17   ar
    12    17     1    1
    13     1     2   ar
    14     2     3   ar
    15     3    31    1
    16    31    32   ar
    17    32    33   ar
    18    33    34   ar
    19    34    35   ar
    20    35    36    1
    21    36    37    1
    22    37    38    1
    23    37    39    1
    24    37    40    1
    25     3     4   ar
    26     4     5   ar
    27     5     6    1
    28     5     7   ar
    29     7     8   ar
    30     8     9   ar
    31     9    10   ar
    32    17    18   ar
    33    25    26   am
    34    26    27    2
    35    26    28    1
    36    28    29    1
    37    28    30    1
    38    28    22    1
    39    18    13   ar
    40    10     1   ar
    41    35    31   ar
    42    10     4   ar
    43     6    11    1
    44     6    12    1
