@<TRIPOS>MOLECULE
*****
 36 40 0 0 0
SMALL
GASTEIGER

@<TRIPOS>ATOM
      1 C          60.8970   87.6331    9.5470 C.ar    1  UNL1        0.1640
      2 N          61.7889   88.1943   10.6145 N.ar    1  UNL1       -0.2222
      3 C          62.2847   87.0526   11.4516 C.ar    1  UNL1        0.1309
      4 C          63.1937   87.0029   12.6438 C.ar    1  UNL1        0.0810
      5 C          63.5172   85.6864   13.2858 C.ar    1  UNL1        0.0895
      6 CL         64.4262   85.6366   14.4780 Cl      1  UNL1       -0.0793
      7 C          62.9318   84.4197   12.7357 C.ar    1  UNL1        0.0863
      8 N          62.0228   84.4694   11.5436 N.ar    1  UNL1       -0.3354
      9 C          61.6993   85.7859   10.9015 C.ar    1  UNL1        0.1613
     10 N          60.8416   86.1446    9.7243 N.ar    1  UNL1       -0.2081
     11 H          61.6385   83.6380   11.1825 H       1  UNL1        0.1675
     12 C          58.7622   89.9995    6.3699 C.ar    1  UNL1        0.0479
     13 C          59.8572   90.6380    7.1721 C.ar    1  UNL1        0.0146
     14 C          60.5687   89.8491    8.2311 C.ar    1  UNL1        0.0043
     15 C          60.1854   88.4218    8.4880 C.ar    1  UNL1        0.0359
     16 C          59.0905   87.7834    7.6858 C.ar    1  UNL1        0.0043
     17 C          58.3789   88.5722    6.6268 C.ar    1  UNL1        0.0146
     18 C          56.5603   90.6872    5.1749 C.3     1  UNL1        0.1122
     19 N          58.0506   90.7882    5.3109 N.pl3   1  UNL1       -0.3041
     20 C          58.8294   91.6780    4.3880 C.3     1  UNL1        0.1122
     21 N          63.7792   88.2697   13.1939 N.pl3   1  UNL1       -0.3027
     22 C          63.6432   89.5528   12.4291 C.3     1  UNL1        0.1082
     23 C          64.2288   90.8195   12.9794 C.3     1  UNL1        0.0942
     24 N          64.9502   90.8029   14.2943 N.3     1  UNL1       -0.2620
     25 C          65.0862   89.5197   15.0591 C.3     1  UNL1        0.0942
     26 C          64.5007   88.2531   14.5089 C.3     1  UNL1        0.1082
     27 C          65.5358   92.0695   14.8446 C.3     1  UNL1        0.1589
     28 C          66.1229   93.0901   13.9151 C.2     1  UNL1        0.2439
     29 O          67.3201   93.8889   14.3379 O.2     1  UNL1       -0.2732
     30 N          65.5129   93.3118   12.5628 N.am    1  UNL1       -0.2630
     31 H          64.7272   92.7876   12.2852 H       1  UNL1        0.1568
     32 C          66.1001   94.3323   11.6334 C.ar    1  UNL1        0.1656
     33 N          66.0889   95.8186   11.8355 N.ar    1  UNL1       -0.2224
     34 C          66.7834   96.4507   10.6658 C.ar    1  UNL1        0.1079
     35 C          67.2238   95.3550    9.7408 C.ar    1  UNL1        0.0588
     36 S          66.8015   94.0458   10.3388 S.2     1  UNL1       -0.0508
@<TRIPOS>BOND
     1    18    19    1
     2    19    20    1
     3    19    12    1
     4    12    13   ar
     5    13    14   ar
     6    14    15   ar
     7    15     1    1
     8     1     2   ar
     9     2     3   ar
    10     3     4   ar
    11     4    21    1
    12    21    22    1
    13    22    23    1
    14    23    24    1
    15    24    27    1
    16    27    28    1
    17    28    29    2
    18    28    30   am
    19    30    32    1
    20    32    33   ar
    21    33    34   ar
    22    34    35   ar
    23    35    36   ar
    24    24    25    1
    25    25    26    1
    26     4     5   ar
    27     5     6    1
    28     5     7   ar
    29     7     8   ar
    30     8     9   ar
    31     9    10   ar
    32    15    16   ar
    33    16    17   ar
    34    17    12   ar
    35    10     1   ar
    36     9     3    1
    37    26    21    1
    38    36    32   ar
    39    30    31    1
    40     8    11    1
@<TRIPOS>MOLECULE
*****
 36 40 0 0 0
SMALL
GASTEIGER

@<TRIPOS>ATOM
      1 C          63.6365   90.4849   11.8967 C.ar    1  UNL1        0.1640
      2 N          63.4206   89.0097   11.7325 N.ar    1  UNL1       -0.2222
      3 C          62.3007   88.8111   10.7545 C.ar    1  UNL1        0.1309
      4 C          61.6531   87.5735   10.2080 C.ar    1  UNL1        0.0810
      5 C          60.5292   87.6884    9.2212 C.ar    1  UNL1        0.0895
      6 CL         59.8815   86.4507    8.6746 Cl      1  UNL1       -0.0793
      7 C          60.0530   89.0409    8.7810 C.ar    1  UNL1        0.0863
      8 N          60.7006   90.2786    9.3275 N.ar    1  UNL1       -0.3354
      9 C          61.8245   90.1637   10.3143 C.ar    1  UNL1        0.1613
     10 N          62.6500   91.1982   11.0202 N.ar    1  UNL1       -0.2081
     11 H          60.3880   91.1663    9.0386 H       1  UNL1        0.1675
     12 C          66.7048   92.4297   14.5525 C.ar    1  UNL1        0.0479
     13 C          65.9723   91.2080   15.0226 C.ar    1  UNL1        0.0146
     14 C          64.9495   90.5598   14.1373 C.ar    1  UNL1        0.0043
     15 C          64.6593   91.1332   12.7819 C.ar    1  UNL1        0.0359
     16 C          65.3918   92.3548   12.3118 C.ar    1  UNL1        0.0043
     17 C          66.4146   93.0031   13.1972 C.ar    1  UNL1        0.0146
     18 C          68.4542   92.2627   16.4660 C.3     1  UNL1        0.1122
     19 N          67.7276   93.0780   15.4378 N.pl3   1  UNL1       -0.3041
     20 C          68.0238   94.5414   15.2947 C.3     1  UNL1        0.1122
     21 N          62.1293   86.2208   10.6482 N.pl3   1  UNL1       -0.3027
     22 C          61.9926   85.8082   12.0838 C.3     1  UNL1        0.1082
     23 C          62.4689   84.4556   12.5239 C.3     1  UNL1        0.0942
     24 N          63.0817   83.5157   11.5284 N.3     1  UNL1       -0.2620
     25 C          63.2183   83.9283   10.0928 C.3     1  UNL1        0.0942
     26 C          62.7421   85.2810    9.6527 C.3     1  UNL1        0.1082
     27 C          63.5579   82.1631   11.9684 C.3     1  UNL1        0.1589
     28 C          62.5692   81.1329   12.4284 C.2     1  UNL1        0.2439
     29 O          62.6287   79.7384   11.8789 O.2     1  UNL1       -0.2732
     30 N          61.5212   81.4972   13.4378 N.am    1  UNL1       -0.2630
     31 H          61.4822   82.4125   13.7984 H       1  UNL1        0.1568
     32 C          60.5327   80.4671   13.8976 C.ar    1  UNL1        0.1656
     33 N          60.8068   79.0044   14.0859 N.ar    1  UNL1       -0.2224
     34 C          59.5400   78.3519   14.5546 C.ar    1  UNL1        0.1079
     35 C          58.4829   79.4114   14.6560 C.ar    1  UNL1        0.0588
     36 S          59.0965   80.7187   14.2499 S.2     1  UNL1       -0.0508
@<TRIPOS>BOND
     1    18    19    1
     2    19    20    1
     3    19    12    1
     4    12    13   ar
     5    13    14   ar
     6    14    15   ar
     7    15     1    1
     8     1     2   ar
     9     2     3   ar
    10     3     4   ar
    11     4    21    1
    12    21    22    1
    13    22    23    1
    14    23    24    1
    15    24    27    1
    16    27    28    1
    17    28    29    2
    18    28    30   am
    19    30    32    1
    20    32    33   ar
    21    33    34   ar
    22    34    35   ar
    23    35    36   ar
    24    24    25    1
    25    25    26    1
    26     4     5   ar
    27     5     6    1
    28     5     7   ar
    29     7     8   ar
    30     8     9   ar
    31     9    10   ar
    32    15    16   ar
    33    16    17   ar
    34    17    12   ar
    35    10     1   ar
    36     9     3    1
    37    26    21    1
    38    36    32   ar
    39    30    31    1
    40     8    11    1
@<TRIPOS>MOLECULE
*****
 36 40 0 0 0
SMALL
GASTEIGER

@<TRIPOS>ATOM
      1 C          64.6581   90.8655   14.2795 C.ar    1  UNL1        0.1640
      2 N          64.5101   89.4028   13.9813 N.ar    1  UNL1       -0.2222
      3 C          63.9559   88.7343   15.2044 C.ar    1  UNL1        0.1309
      4 C          63.6032   87.3055   15.4945 C.ar    1  UNL1        0.0810
      5 C          63.0560   86.9262   16.8387 C.ar    1  UNL1        0.0895
      6 CL         62.7033   85.4973   17.1288 Cl      1  UNL1       -0.0793
      7 C          62.8614   87.9755   17.8926 C.ar    1  UNL1        0.0863
      8 N          63.2141   89.4043   17.6025 N.ar    1  UNL1       -0.3354
      9 C          63.7613   89.7837   16.2584 C.ar    1  UNL1        0.1613
     10 N          64.1953   91.1009   15.6867 N.ar    1  UNL1       -0.2081
     11 H          63.0863   90.0931   18.2943 H       1  UNL1        0.1675
     12 C          66.2167   93.9975   11.4490 C.ar    1  UNL1        0.0479
     13 C          66.6111   94.0311   12.8958 C.ar    1  UNL1        0.0146
     14 C          66.0915   92.9871   13.8393 C.ar    1  UNL1        0.0043
     15 C          65.1776   91.9094   13.3360 C.ar    1  UNL1        0.0359
     16 C          64.7832   91.8758   11.8891 C.ar    1  UNL1        0.0043
     17 C          65.3028   92.9198   10.9457 C.ar    1  UNL1        0.0146
     18 C          66.4387   96.4906   10.7529 C.3     1  UNL1        0.1122
     19 N          66.7363   95.0414   10.5055 N.pl3   1  UNL1       -0.3041
     20 C          67.5533   94.6362    9.3146 C.3     1  UNL1        0.1122
     21 N          63.7978   86.2560   14.4405 N.pl3   1  UNL1       -0.3027
     22 C          64.8398   85.1929   14.6241 C.3     1  UNL1        0.1082
     23 C          65.0343   84.1434   13.5701 C.3     1  UNL1        0.0942
     24 N          64.1868   84.1572   12.3326 N.3     1  UNL1       -0.2620
     25 C          63.1447   85.2204   12.1490 C.3     1  UNL1        0.0942
     26 C          62.9502   86.2698   13.2030 C.3     1  UNL1        0.1082
     27 C          64.3813   83.1078   11.2786 C.3     1  UNL1        0.1589
     28 C          63.6287   83.1965    9.9840 C.2     1  UNL1        0.2439
     29 O          63.0340   81.9610    9.3760 O.2     1  UNL1       -0.2732
     30 N          63.4710   84.5209    9.2975 N.am    1  UNL1       -0.2630
     31 H          63.8613   85.3318    9.6965 H       1  UNL1        0.1568
     32 C          62.7185   84.6095    8.0029 C.ar    1  UNL1        0.1656
     33 N          63.1953   84.1129    6.6703 N.ar    1  UNL1       -0.2224
     34 C          62.1287   84.4068    5.6573 C.ar    1  UNL1        0.1079
     35 C          60.9926   85.0850    6.3641 C.ar    1  UNL1        0.0588
     36 S          61.3572   85.2103    7.8138 S.2     1  UNL1       -0.0508
@<TRIPOS>BOND
     1    18    19    1
     2    19    20    1
     3    19    12    1
     4    12    13   ar
     5    13    14   ar
     6    14    15   ar
     7    15     1    1
     8     1     2   ar
     9     2     3   ar
    10     3     4   ar
    11     4    21    1
    12    21    22    1
    13    22    23    1
    14    23    24    1
    15    24    27    1
    16    27    28    1
    17    28    29    2
    18    28    30   am
    19    30    32    1
    20    32    33   ar
    21    33    34   ar
    22    34    35   ar
    23    35    36   ar
    24    24    25    1
    25    25    26    1
    26     4     5   ar
    27     5     6    1
    28     5     7   ar
    29     7     8   ar
    30     8     9   ar
    31     9    10   ar
    32    15    16   ar
    33    16    17   ar
    34    17    12   ar
    35    10     1   ar
    36     9     3    1
    37    26    21    1
    38    36    32   ar
    39    30    31    1
    40     8    11    1
@<TRIPOS>MOLECULE
*****
 36 40 0 0 0
SMALL
GASTEIGER

@<TRIPOS>ATOM
      1 C          65.6551   93.3830   12.5058 C.ar    1  UNL1        0.1640
      2 N          65.0206   92.0242   12.5355 N.ar    1  UNL1       -0.2222
      3 C          64.8149   91.6400   13.9708 C.ar    1  UNL1        0.1309
      4 C          64.2311   90.4139   14.6078 C.ar    1  UNL1        0.0810
      5 C          64.1547   90.3092   16.1023 C.ar    1  UNL1        0.0895
      6 CL         63.5709   89.0830   16.7393 Cl      1  UNL1       -0.0793
      7 C          64.6621   91.4305   16.9595 C.ar    1  UNL1        0.0863
      8 N          65.2459   92.6566   16.3225 N.ar    1  UNL1       -0.3354
      9 C          65.3223   92.7614   14.8282 C.ar    1  UNL1        0.1613
     10 N          65.8415   93.8386   13.9227 N.ar    1  UNL1       -0.2081
     11 H          65.5789   93.3926   16.8852 H       1  UNL1        0.1675
     12 C          66.7986   95.6881    8.8140 C.ar    1  UNL1        0.0479
     13 C          67.2174   94.2555    8.9634 C.ar    1  UNL1        0.0146
     14 C          66.8361   93.4872   10.1941 C.ar    1  UNL1        0.0043
     15 C          66.0362   94.1514   11.2752 C.ar    1  UNL1        0.0359
     16 C          65.6175   95.5840   11.1258 C.ar    1  UNL1        0.0043
     17 C          65.9987   96.3523    9.8952 C.ar    1  UNL1        0.0146
     18 C          68.6133   96.8287    7.3458 C.3     1  UNL1        0.1122
     19 N          67.1798   96.4565    7.5834 N.pl3   1  UNL1       -0.3041
     20 C          66.1275   96.8527    6.5906 C.3     1  UNL1        0.1122
     21 N          63.7237   89.2924   13.7505 N.pl3   1  UNL1       -0.3027
     22 C          64.1433   87.8810   14.0362 C.3     1  UNL1        0.1082
     23 C          63.6359   86.7596   13.1788 C.3     1  UNL1        0.0942
     24 N          62.7088   87.0497   12.0359 N.3     1  UNL1       -0.2620
     25 C          62.2891   88.4611   11.7502 C.3     1  UNL1        0.0942
     26 C          62.7966   89.5825   12.6076 C.3     1  UNL1        0.1082
     27 C          62.2013   85.9283   11.1785 C.3     1  UNL1        0.1589
     28 C          62.5314   84.5076   11.5292 C.2     1  UNL1        0.2439
     29 O          63.0819   83.5852   10.4822 O.2     1  UNL1       -0.2732
     30 N          62.3109   84.0094   12.9267 N.am    1  UNL1       -0.2630
     31 H          61.9496   84.6148   13.6139 H       1  UNL1        0.1568
     32 C          62.6410   82.5888   13.2772 C.ar    1  UNL1        0.1656
     33 N          64.0181   82.0035   13.3809 N.ar    1  UNL1       -0.2224
     34 C          63.8803   80.5570   13.7534 C.ar    1  UNL1        0.1079
     35 C          62.4177   80.2484   13.8799 C.ar    1  UNL1        0.0588
     36 S          61.6519   81.5042   13.5857 S.2     1  UNL1       -0.0508
@<TRIPOS>BOND
     1    18    19    1
     2    19    20    1
     3    19    12    1
     4    12    13   ar
     5    13    14   ar
     6    14    15   ar
     7    15     1    1
     8     1     2   ar
     9     2     3   ar
    10     3     4   ar
    11     4    21    1
    12    21    22    1
    13    22    23    1
    14    23    24    1
    15    24    27    1
    16    27    28    1
    17    28    29    2
    18    28    30   am
    19    30    32    1
    20    32    33   ar
    21    33    34   ar
    22    34    35   ar
    23    35    36   ar
    24    24    25    1
    25    25    26    1
    26     4     5   ar
    27     5     6    1
    28     5     7   ar
    29     7     8   ar
    30     8     9   ar
    31     9    10   ar
    32    15    16   ar
    33    16    17   ar
    34    17    12   ar
    35    10     1   ar
    36     9     3    1
    37    26    21    1
    38    36    32   ar
    39    30    31    1
    40     8    11    1
@<TRIPOS>MOLECULE
*****
 36 40 0 0 0
SMALL
GASTEIGER

@<TRIPOS>ATOM
      1 C          63.0141   85.0458   12.5339 C.ar    1  UNL1        0.1640
      2 N          62.3458   86.0195   11.6091 N.ar    1  UNL1       -0.2222
      3 C          62.7245   87.4047   12.0423 C.ar    1  UNL1        0.1309
      4 C          62.3642   88.7580   11.5049 C.ar    1  UNL1        0.0810
      5 C          62.9064   89.9938   12.1600 C.ar    1  UNL1        0.0895
      6 CL         62.5461   91.3472   11.6226 Cl      1  UNL1       -0.0793
      7 C          63.8088   89.8762   13.3523 C.ar    1  UNL1        0.0863
      8 N          64.1691   88.5229   13.8897 N.ar    1  UNL1       -0.3354
      9 C          63.6269   87.2872   13.2347 C.ar    1  UNL1        0.1613
     10 N          63.8059   85.8292   13.5385 N.ar    1  UNL1       -0.2081
     11 H          64.7613   88.4457   14.6723 H       1  UNL1        0.1675
     12 C          62.6992   80.5614   12.3300 C.ar    1  UNL1        0.0479
     13 C          63.1428   81.3376   11.1255 C.ar    1  UNL1        0.0146
     14 C          63.2478   82.8324   11.1936 C.ar    1  UNL1        0.0043
     15 C          62.9092   83.5510   12.4660 C.ar    1  UNL1        0.0359
     16 C          62.4656   82.7748   13.6704 C.ar    1  UNL1        0.0043
     17 C          62.3606   81.2800   13.6024 C.ar    1  UNL1        0.0146
     18 C          62.3931   78.2711   13.5177 C.3     1  UNL1        0.1122
     19 N          62.5943   79.0666   12.2621 N.pl3   1  UNL1       -0.3041
     20 C          62.6905   78.3674   10.9385 C.3     1  UNL1        0.1122
     21 N          61.4618   88.8757   10.3125 N.pl3   1  UNL1       -0.3027
     22 C          61.4006   87.7655    9.3057 C.3     1  UNL1        0.1082
     23 C          60.4982   87.8832    8.1134 C.3     1  UNL1        0.0942
     24 N          59.6570   89.1112    7.9278 N.3     1  UNL1       -0.2620
     25 C          59.7181   90.2214    8.9345 C.3     1  UNL1        0.0942
     26 C          60.6206   90.1036   10.1269 C.3     1  UNL1        0.1082
     27 C          58.7545   89.2289    6.7354 C.3     1  UNL1        0.1589
     28 C          58.9859   90.3120    5.7237 C.2     1  UNL1        0.2439
     29 O          57.8309   91.1233    5.2161 O.2     1  UNL1       -0.2732
     30 N          60.3723   90.5839    5.2198 N.am    1  UNL1       -0.2630
     31 H          61.1304   90.0514    5.5529 H       1  UNL1        0.1568
     32 C          60.6036   91.6669    4.2081 C.ar    1  UNL1        0.1656
     33 N          59.6433   92.7641    3.8560 N.ar    1  UNL1       -0.2224
     34 C          60.2819   93.6184    2.8013 C.ar    1  UNL1        0.1079
     35 C          61.6370   93.0491    2.5015 C.ar    1  UNL1        0.0588
     36 S          61.8358   91.8430    3.3710 S.2     1  UNL1       -0.0508
@<TRIPOS>BOND
     1    18    19    1
     2    19    20    1
     3    19    12    1
     4    12    13   ar
     5    13    14   ar
     6    14    15   ar
     7    15     1    1
     8     1     2   ar
     9     2     3   ar
    10     3     4   ar
    11     4    21    1
    12    21    22    1
    13    22    23    1
    14    23    24    1
    15    24    27    1
    16    27    28    1
    17    28    29    2
    18    28    30   am
    19    30    32    1
    20    32    33   ar
    21    33    34   ar
    22    34    35   ar
    23    35    36   ar
    24    24    25    1
    25    25    26    1
    26     4     5   ar
    27     5     6    1
    28     5     7   ar
    29     7     8   ar
    30     8     9   ar
    31     9    10   ar
    32    15    16   ar
    33    16    17   ar
    34    17    12   ar
    35    10     1   ar
    36     9     3    1
    37    26    21    1
    38    36    32   ar
    39    30    31    1
    40     8    11    1
@<TRIPOS>MOLECULE
*****
 36 40 0 0 0
SMALL
GASTEIGER

@<TRIPOS>ATOM
      1 C          60.1719   90.2872    5.9350 C.ar    1  UNL1        0.1640
      2 N          60.9036   90.3567    7.2426 N.ar    1  UNL1       -0.2222
      3 C          60.4301   89.2204    8.0997 C.ar    1  UNL1        0.1309
      4 C          60.7993   88.7888    9.4880 C.ar    1  UNL1        0.0810
      5 C          60.1441   87.5853   10.0984 C.ar    1  UNL1        0.0895
      6 CL         60.5134   87.1536   11.4867 Cl      1  UNL1       -0.0793
      7 C          59.1198   86.8136    9.3205 C.ar    1  UNL1        0.0863
      8 N          58.7506   87.2452    7.9323 N.ar    1  UNL1       -0.3354
      9 C          59.4057   88.4486    7.3218 C.ar    1  UNL1        0.1613
     10 N          59.2461   89.1080    5.9840 N.ar    1  UNL1       -0.2081
     11 H          58.0783   86.7387    7.4217 H       1  UNL1        0.1675
     12 C          60.6670   93.1192    2.4731 C.ar    1  UNL1        0.0479
     13 C          59.3608   93.0539    3.2078 C.ar    1  UNL1        0.0146
     14 C          59.1959   92.1099    4.3618 C.ar    1  UNL1        0.0043
     15 C          60.3370   91.2312    4.7811 C.ar    1  UNL1        0.0359
     16 C          61.6431   91.2965    4.0464 C.ar    1  UNL1        0.0043
     17 C          61.8081   92.2406    2.8924 C.ar    1  UNL1        0.0146
     18 C          62.1739   94.6687    1.0316 C.3     1  UNL1        0.1122
     19 N          60.8320   94.0632    1.3191 N.pl3   1  UNL1       -0.3041
     20 C          59.6552   94.4016    0.4528 C.3     1  UNL1        0.1122
     21 N          61.8237   89.5605   10.2659 N.pl3   1  UNL1       -0.3027
     22 C          62.2438   89.0891   11.6265 C.3     1  UNL1        0.1082
     23 C          63.2681   89.8609   12.4044 C.3     1  UNL1        0.0942
     24 N          63.8724   91.1040   11.8216 N.3     1  UNL1       -0.2620
     25 C          63.4523   91.5753   10.4610 C.3     1  UNL1        0.0942
     26 C          62.4280   90.8036    9.6831 C.3     1  UNL1        0.1082
     27 C          64.8968   91.8758   12.5994 C.3     1  UNL1        0.1589
     28 C          65.7940   92.8510   11.8965 C.2     1  UNL1        0.2439
     29 O          67.2700   92.8394   12.1639 O.2     1  UNL1       -0.2732
     30 N          65.2153   93.8378   10.9263 N.am    1  UNL1       -0.2630
     31 H          64.2466   93.8454   10.7508 H       1  UNL1        0.1568
     32 C          66.1126   94.8129   10.2235 C.ar    1  UNL1        0.1656
     33 N          66.9676   94.5196    9.0265 N.ar    1  UNL1       -0.2224
     34 C          67.6959   95.7779    8.6574 C.ar    1  UNL1        0.1079
     35 C          67.2909   96.8490    9.6264 C.ar    1  UNL1        0.0588
     36 S          66.3124   96.2525   10.5943 S.2     1  UNL1       -0.0508
@<TRIPOS>BOND
     1    18    19    1
     2    19    20    1
     3    19    12    1
     4    12    13   ar
     5    13    14   ar
     6    14    15   ar
     7    15     1    1
     8     1     2   ar
     9     2     3   ar
    10     3     4   ar
    11     4    21    1
    12    21    22    1
    13    22    23    1
    14    23    24    1
    15    24    27    1
    16    27    28    1
    17    28    29    2
    18    28    30   am
    19    30    32    1
    20    32    33   ar
    21    33    34   ar
    22    34    35   ar
    23    35    36   ar
    24    24    25    1
    25    25    26    1
    26     4     5   ar
    27     5     6    1
    28     5     7   ar
    29     7     8   ar
    30     8     9   ar
    31     9    10   ar
    32    15    16   ar
    33    16    17   ar
    34    17    12   ar
    35    10     1   ar
    36     9     3    1
    37    26    21    1
    38    36    32   ar
    39    30    31    1
    40     8    11    1
@<TRIPOS>MOLECULE
*****
 36 40 0 0 0
SMALL
GASTEIGER

@<TRIPOS>ATOM
      1 C          62.7326   89.9589   10.7032 C.ar    1  UNL1        0.1640
      2 N          61.9294   90.1572    9.4519 N.ar    1  UNL1       -0.2222
      3 C          61.1522   88.9000    9.1960 C.ar    1  UNL1        0.1309
      4 C          60.1922   88.5174    8.1088 C.ar    1  UNL1        0.0810
      5 C          59.5550   87.1594    8.1147 C.ar    1  UNL1        0.0895
      6 CL         58.5950   86.7767    7.0275 Cl      1  UNL1       -0.0793
      7 C          59.8778   86.1842    9.2077 C.ar    1  UNL1        0.0863
      8 N          60.8377   86.5669   10.2949 N.ar    1  UNL1       -0.3354
      9 C          61.4749   87.9248   10.2890 C.ar    1  UNL1        0.1613
     10 N          62.4517   88.5792   11.2205 N.ar    1  UNL1       -0.2081
     11 H          61.0496   85.9268   11.0123 H       1  UNL1        0.1675
     12 C          65.4990   92.9737   12.5762 C.ar    1  UNL1        0.0479
     13 C          64.8349   91.9337   13.4291 C.ar    1  UNL1        0.0146
     14 C          63.9128   90.9287   12.8047 C.ar    1  UNL1        0.0043
     15 C          63.6547   90.9638   11.3275 C.ar    1  UNL1        0.0359
     16 C          64.3188   92.0038   10.4746 C.ar    1  UNL1        0.0043
     17 C          65.2409   93.0087   11.0990 C.ar    1  UNL1        0.0146
     18 C          67.1817   93.6271   14.4447 C.3     1  UNL1        0.1122
     19 N          66.4211   93.9786   13.2005 N.pl3   1  UNL1       -0.3041
     20 C          66.5827   95.3349   12.5806 C.3     1  UNL1        0.1122
     21 N          59.8694   89.4925    7.0157 N.pl3   1  UNL1       -0.3027
     22 C          58.4425   89.8621    6.7376 C.3     1  UNL1        0.1082
     23 C          58.1198   90.8373    5.6445 C.3     1  UNL1        0.0942
     24 N          59.2239   91.4428    4.8295 N.3     1  UNL1       -0.2620
     25 C          60.6508   91.0733    5.1076 C.3     1  UNL1        0.0942
     26 C          60.9735   90.0981    6.2007 C.3     1  UNL1        0.1082
     27 C          58.9012   92.4180    3.7364 C.3     1  UNL1        0.1589
     28 C          60.0078   93.0600    2.9532 C.2     1  UNL1        0.2439
     29 O          60.1006   94.5550    2.8732 O.2     1  UNL1       -0.2732
     30 N          61.0217   92.2070    2.2500 N.am    1  UNL1       -0.2630
     31 H          60.9608   91.2258    2.3025 H       1  UNL1        0.1568
     32 C          62.1282   92.8490    1.4669 C.ar    1  UNL1        0.1656
     33 N          61.9984   93.4801    0.1124 N.ar    1  UNL1       -0.2224
     34 C          63.3488   93.9939   -0.2910 C.ar    1  UNL1        0.1079
     35 C          64.3131   93.6802    0.8143 C.ar    1  UNL1        0.0588
     36 S          63.5587   92.9726    1.9007 S.2     1  UNL1       -0.0508
@<TRIPOS>BOND
     1    18    19    1
     2    19    20    1
     3    19    12    1
     4    12    13   ar
     5    13    14   ar
     6    14    15   ar
     7    15     1    1
     8     1     2   ar
     9     2     3   ar
    10     3     4   ar
    11     4    21    1
    12    21    22    1
    13    22    23    1
    14    23    24    1
    15    24    27    1
    16    27    28    1
    17    28    29    2
    18    28    30   am
    19    30    32    1
    20    32    33   ar
    21    33    34   ar
    22    34    35   ar
    23    35    36   ar
    24    24    25    1
    25    25    26    1
    26     4     5   ar
    27     5     6    1
    28     5     7   ar
    29     7     8   ar
    30     8     9   ar
    31     9    10   ar
    32    15    16   ar
    33    16    17   ar
    34    17    12   ar
    35    10     1   ar
    36     9     3    1
    37    26    21    1
    38    36    32   ar
    39    30    31    1
    40     8    11    1
@<TRIPOS>MOLECULE
*****
 36 40 0 0 0
SMALL
GASTEIGER

@<TRIPOS>ATOM
      1 C          62.6196   85.3263   12.2666 C.ar    1  UNL1        0.1640
      2 N          63.0708   86.5608   12.9893 N.ar    1  UNL1       -0.2222
      3 C          62.9670   86.2993   14.4627 C.ar    1  UNL1        0.1309
      4 C          63.2752   87.1522   15.6576 C.ar    1  UNL1        0.0810
      5 C          63.0681   86.6088   17.0403 C.ar    1  UNL1        0.0895
      6 CL         63.3763   87.4617   18.2352 Cl      1  UNL1       -0.0793
      7 C          62.5529   85.2127   17.2282 C.ar    1  UNL1        0.0863
      8 N          62.2447   84.3599   16.0333 N.ar    1  UNL1       -0.3354
      9 C          62.4518   84.9032   14.6506 C.ar    1  UNL1        0.1613
     10 N          62.2370   84.3018   13.2933 N.ar    1  UNL1       -0.2081
     11 H          61.9065   83.4435   16.1566 H       1  UNL1        0.1675
     12 C          62.4444   84.7902    7.8021 C.ar    1  UNL1        0.0479
     13 C          61.5407   85.7807    8.4745 C.ar    1  UNL1        0.0146
     14 C          61.5992   85.9594    9.9627 C.ar    1  UNL1        0.0043
     15 C          62.5612   85.1476   10.7785 C.ar    1  UNL1        0.0359
     16 C          63.4648   84.1570   10.1060 C.ar    1  UNL1        0.0043
     17 C          63.4064   83.9783    8.6178 C.ar    1  UNL1        0.0146
     18 C          63.5984   84.8928    5.4767 C.3     1  UNL1        0.1122
     19 N          62.3860   84.6115    6.3139 N.pl3   1  UNL1       -0.3041
     20 C          61.1153   84.1514    5.6630 C.3     1  UNL1        0.1122
     21 N          63.7905   88.5483   15.4698 N.pl3   1  UNL1       -0.3027
     22 C          64.8148   88.8338   14.4118 C.3     1  UNL1        0.1082
     23 C          65.3300   90.2300   14.2241 C.3     1  UNL1        0.0942
     24 N          64.8209   91.3406   15.0943 N.3     1  UNL1       -0.2620
     25 C          63.7966   91.0552   16.1522 C.3     1  UNL1        0.0942
     26 C          63.2814   89.6590   16.3400 C.3     1  UNL1        0.1082
     27 C          65.3362   92.7368   14.9066 C.3     1  UNL1        0.1589
     28 C          66.2092   93.0624   13.7310 C.2     1  UNL1        0.2439
     29 O          67.7010   93.0807   13.8869 O.2     1  UNL1       -0.2732
     30 N          65.5904   93.3696   12.3996 N.am    1  UNL1       -0.2630
     31 H          64.6113   93.3576   12.2972 H       1  UNL1        0.1568
     32 C          66.4635   93.6952   11.2241 C.ar    1  UNL1        0.1656
     33 N          67.4114   92.7535   10.5423 N.ar    1  UNL1       -0.2224
     34 C          68.0757   93.4958    9.4208 C.ar    1  UNL1        0.1079
     35 C          67.5383   94.8962    9.4095 C.ar    1  UNL1        0.0588
     36 S          66.5419   95.0194   10.5240 S.2     1  UNL1       -0.0508
@<TRIPOS>BOND
     1    18    19    1
     2    19    20    1
     3    19    12    1
     4    12    13   ar
     5    13    14   ar
     6    14    15   ar
     7    15     1    1
     8     1     2   ar
     9     2     3   ar
    10     3     4   ar
    11     4    21    1
    12    21    22    1
    13    22    23    1
    14    23    24    1
    15    24    27    1
    16    27    28    1
    17    28    29    2
    18    28    30   am
    19    30    32    1
    20    32    33   ar
    21    33    34   ar
    22    34    35   ar
    23    35    36   ar
    24    24    25    1
    25    25    26    1
    26     4     5   ar
    27     5     6    1
    28     5     7   ar
    29     7     8   ar
    30     8     9   ar
    31     9    10   ar
    32    15    16   ar
    33    16    17   ar
    34    17    12   ar
    35    10     1   ar
    36     9     3    1
    37    26    21    1
    38    36    32   ar
    39    30    31    1
    40     8    11    1
@<TRIPOS>MOLECULE
*****
 36 40 0 0 0
SMALL
GASTEIGER

@<TRIPOS>ATOM
      1 C          64.8983   91.6723   13.5547 C.ar    1  UNL1        0.1640
      2 N          64.6613   90.1949   13.4491 N.ar    1  UNL1       -0.2222
      3 C          64.1362   89.7142   14.7694 C.ar    1  UNL1        0.1309
      4 C          63.7265   88.3542   15.2515 C.ar    1  UNL1        0.0810
      5 C          63.2292   88.1745   16.6553 C.ar    1  UNL1        0.0895
      6 CL         62.8194   86.8144   17.1374 Cl      1  UNL1       -0.0793
      7 C          63.1416   89.3547   17.5768 C.ar    1  UNL1        0.0863
      8 N          63.5514   90.7147   17.0947 N.ar    1  UNL1       -0.3354
      9 C          64.0487   90.8945   15.6910 C.ar    1  UNL1        0.1613
     10 N          64.5197   92.1047   14.9402 N.ar    1  UNL1       -0.2081
     11 H          63.4939   91.4894   17.6995 H       1  UNL1        0.1675
     12 C          66.4693   94.3392   10.2883 C.ar    1  UNL1        0.0479
     13 C          65.8038   93.0406    9.9411 C.ar    1  UNL1        0.0146
     14 C          65.2801   92.1517   11.0299 C.ar    1  UNL1        0.0043
     15 C          65.4220   92.5613   12.4659 C.ar    1  UNL1        0.0359
     16 C          66.0876   93.8599   12.8131 C.ar    1  UNL1        0.0043
     17 C          66.6112   94.7489   11.7242 C.ar    1  UNL1        0.0146
     18 C          67.7336   94.6347    8.0380 C.3     1  UNL1        0.1122
     19 N          66.9930   95.2282    9.1995 N.pl3   1  UNL1       -0.3041
     20 C          66.7761   96.7107    9.2723 C.3     1  UNL1        0.1122
     21 N          63.8140   87.1738   14.3300 N.pl3   1  UNL1       -0.3027
     22 C          64.6124   85.9683   14.7291 C.3     1  UNL1        0.1082
     23 C          64.6999   84.7881   13.8075 C.3     1  UNL1        0.0942
     24 N          63.9890   84.8133   12.4869 N.3     1  UNL1       -0.2620
     25 C          63.1906   86.0188   12.0878 C.3     1  UNL1        0.0942
     26 C          63.1032   87.1991   13.0094 C.3     1  UNL1        0.1082
     27 C          64.0765   83.6330   11.5653 C.3     1  UNL1        0.1589
     28 C          63.3041   82.3840   11.8710 C.2     1  UNL1        0.2439
     29 O          63.1917   81.3004   10.8398 O.2     1  UNL1       -0.2732
     30 N          62.6441   82.2185   13.2077 N.am    1  UNL1       -0.2630
     31 H          62.7178   82.9296   13.8846 H       1  UNL1        0.1568
     32 C          61.8717   80.9695   13.5133 C.ar    1  UNL1        0.1656
     33 N          62.3626   79.5634   13.3344 N.ar    1  UNL1       -0.2224
     34 C          61.2673   78.6320   13.7619 C.ar    1  UNL1        0.1079
     35 C          60.0993   79.4626   14.2050 C.ar    1  UNL1        0.0588
     36 S          60.4729   80.9072   14.0513 S.2     1  UNL1       -0.0508
@<TRIPOS>BOND
     1    18    19    1
     2    19    20    1
     3    19    12    1
     4    12    13   ar
     5    13    14   ar
     6    14    15   ar
     7    15     1    1
     8     1     2   ar
     9     2     3   ar
    10     3     4   ar
    11     4    21    1
    12    21    22    1
    13    22    23    1
    14    23    24    1
    15    24    27    1
    16    27    28    1
    17    28    29    2
    18    28    30   am
    19    30    32    1
    20    32    33   ar
    21    33    34   ar
    22    34    35   ar
    23    35    36   ar
    24    24    25    1
    25    25    26    1
    26     4     5   ar
    27     5     6    1
    28     5     7   ar
    29     7     8   ar
    30     8     9   ar
    31     9    10   ar
    32    15    16   ar
    33    16    17   ar
    34    17    12   ar
    35    10     1   ar
    36     9     3    1
    37    26    21    1
    38    36    32   ar
    39    30    31    1
    40     8    11    1
