@<TRIPOS>MOLECULE
*****
 55 59 0 0 0
SMALL
GASTEIGER

@<TRIPOS>ATOM
      1 C          63.4495   90.5470   12.6298 C.3     1  UNL1        0.2170
      2 C          62.7750   90.7185   11.3011 C.3     1  UNL1        0.0525
      3 C          63.2653   91.7607   10.3401 C.3     1  UNL1        0.0257
      4 C          64.4301   92.6313   10.7078 C.3     1  UNL1        0.0939
      5 N          65.1047   92.4597   12.0366 N.am    1  UNL1       -0.2737
      6 C          66.2695   93.3303   12.4044 C.2     1  UNL1        0.2506
      7 O          67.0554   93.2946   13.6814 O.2     1  UNL1       -0.2699
      8 C          64.6143   91.4176   12.9976 C.3     1  UNL1        0.1230
      9 N          61.6605   86.6830    9.2954 N.pl3   1  UNL1       -0.3017
     10 C          62.7187   87.7407    9.1888 C.3     1  UNL1        0.1124
     11 C          62.9623   88.6761   10.3358 C.3     1  UNL1        0.1149
     12 N          62.1477   88.5538   11.5894 N.am    1  UNL1       -0.2732
     13 C          62.3913   89.4892   12.7364 C.2     1  UNL1        0.2636
     14 O          61.5768   89.3669   13.9900 O.2     1  UNL1       -0.2711
     15 C          61.0895   87.4961   11.6960 C.3     1  UNL1        0.1149
     16 C          60.8459   86.5606   10.5489 C.3     1  UNL1        0.1124
     17 C          60.0748   85.7148    7.4792 C.ar    1  UNL1        0.1518
     18 C          59.8313   84.7794    6.3322 C.ar    1  UNL1        0.0382
     19 C          60.9298   83.8768    5.8543 C.ar    1  UNL1        0.0032
     20 C          62.2719   83.9095    6.5234 C.ar    1  UNL1        0.0015
     21 C          62.5154   84.8449    7.6704 C.ar    1  UNL1        0.0176
     22 C          61.4169   85.7476    8.1483 C.ar    1  UNL1        0.0824
     23 O          58.9763   86.6175    7.9571 O.3     1  UNL1       -0.4715
     24 C          58.6527   87.8711    7.1996 C.3     1  UNL1        0.2374
     25 C          59.5112   89.0900    7.3650 C.3     1  UNL1        0.1894
     26 C          58.5161   90.7942    5.6751 C.3     1  UNL1        0.1743
     27 O          59.6934   90.0402    6.2186 O.3     1  UNL1       -0.3471
     28 C          66.7598   94.3725   11.4434 C.ar    1  UNL1        0.0766
     29 C          66.3987   95.8134   11.6512 C.ar    1  UNL1        0.1033
     30 N          66.8890   96.8556   10.6902 N.ar    1  UNL1       -0.2422
     31 C          67.7404   96.4568    9.5214 C.ar    1  UNL1        0.0988
     32 C          68.1015   95.0158    9.3136 C.ar    1  UNL1        0.0247
     33 C          67.6112   93.9737   10.2745 C.ar    1  UNL1        0.0788
     34 C          67.9722   92.5327   10.0668 C.3     1  UNL1        0.4188
     35 F          68.3333   91.0916    9.8591 F       1  UNL1       -0.1659
     36 F          68.2958   92.4034   11.5257 F       1  UNL1       -0.1659
     37 F          67.6487   92.6619    8.6078 F       1  UNL1       -0.1659
     38 O          63.7565   90.0080   13.9956 O.3     1  UNL1       -0.4723
     39 C          63.8601   88.5273   14.2117 C.ar    1  UNL1        0.1390
     40 C          63.9820   87.6044   13.0355 C.ar    1  UNL1        0.0369
     41 C          64.0856   86.1236   13.2516 C.ar    1  UNL1        0.0070
     42 C          64.0673   85.5658   14.6439 C.ar    1  UNL1        0.0716
     43 C          63.9455   86.4887   15.8201 C.ar    1  UNL1        0.0070
     44 C          63.8419   87.9695   15.6040 C.ar    1  UNL1        0.0369
     45 C          64.1709   84.0851   14.8600 C.3     1  UNL1        0.4186
     46 F          64.2746   82.6043   15.0759 F       1  UNL1       -0.1659
     47 F          62.8615   83.9118   15.5708 F       1  UNL1       -0.1659
     48 F          65.5030   84.0778   14.1703 F       1  UNL1       -0.1659
     49 C          65.2889   91.2460   14.3264 C.3     1  UNL1        0.0557
     50 C          64.6936   91.8667   15.5554 C.3     1  UNL1        0.1415
     51 O          63.3102   91.6540   16.0946 O.3     1  UNL1       -0.3818
     52 H          63.1932   92.1798   16.9013 H       1  UNL1        0.2104
     53 C          65.5078   92.8129   16.3872 C.3     1  UNL1        0.1663
     54 O          66.9669   92.4657   16.4105 O.3     1  UNL1       -0.3795
     55 H          67.0840   91.5870   16.8043 H       1  UNL1        0.2105
@<TRIPOS>BOND
     1    26    27    1
     2    27    25    1
     3    25    24    1
     4    24    23    1
     5    23    17    1
     6    17    18   ar
     7    18    19   ar
     8    19    20   ar
     9    20    21   ar
    10    21    22   ar
    11    22     9    1
    12     9    10    1
    13    10    11    1
    14    11    12    1
    15    12    13   am
    16    13    14    2
    17    13     1    1
    18     1    38    1
    19    38    39    1
    20    39    40   ar
    21    40    41   ar
    22    41    42   ar
    23    42    45    1
    24    45    46    1
    25    45    47    1
    26    45    48    1
    27    42    43   ar
    28    43    44   ar
    29     1     2    1
    30     2     3    1
    31     3     4    1
    32     4     5    1
    33     5     6   am
    34     6     7    2
    35     6    28    1
    36    28    29   ar
    37    29    30   ar
    38    30    31   ar
    39    31    32   ar
    40    32    33   ar
    41    33    34    1
    42    34    35    1
    43    34    36    1
    44    34    37    1
    45     5     8    1
    46     8    49    1
    47    49    50    1
    48    50    51    1
    49    50    53    1
    50    53    54    1
    51    12    15    1
    52    15    16    1
    53    22    17   ar
    54    16     9    1
    55     8     1    1
    56    44    39   ar
    57    33    28   ar
    58    51    52    1
    59    54    55    1
@<TRIPOS>MOLECULE
*****
 55 59 0 0 0
SMALL
GASTEIGER

@<TRIPOS>ATOM
      1 C          63.3977   90.6225   12.5720 C.3     1  UNL1        0.2170
      2 C          62.7089   90.8046   11.2520 C.3     1  UNL1        0.0525
      3 C          63.2073   91.8343   10.2817 C.3     1  UNL1        0.0257
      4 C          64.3944   92.6818   10.6315 C.3     1  UNL1        0.0939
      5 N          65.0832   92.4997   11.9515 N.am    1  UNL1       -0.2737
      6 C          66.2704   93.3472   12.3013 C.2     1  UNL1        0.2506
      7 O          67.0726   93.2985   13.5677 O.2     1  UNL1       -0.2699
      8 C          64.5848   91.4700   12.9217 C.3     1  UNL1        0.1230
      9 N          61.5229   86.7515    9.2932 N.pl3   1  UNL1       -0.3017
     10 C          62.6009   87.7872    9.1696 C.3     1  UNL1        0.1124
     11 C          62.8665   88.7323   10.3037 C.3     1  UNL1        0.1149
     12 N          62.0541   88.6417   11.5614 N.am    1  UNL1       -0.2732
     13 C          62.3197   89.5868   12.6955 C.2     1  UNL1        0.2636
     14 O          61.5073   89.4962   13.9532 O.2     1  UNL1       -0.2711
     15 C          60.9761   87.6060   11.6850 C.3     1  UNL1        0.1149
     16 C          60.7105   86.6609   10.5508 C.3     1  UNL1        0.1124
     17 C          62.2877   84.7857    7.7763 C.ar    1  UNL1        0.1518
     18 C          62.0221   83.8407    6.6422 C.ar    1  UNL1        0.0382
     19 C          60.7261   83.9163    5.8907 C.ar    1  UNL1        0.0032
     20 C          59.6957   84.9370    6.2733 C.ar    1  UNL1        0.0015
     21 C          59.9614   85.8821    7.4075 C.ar    1  UNL1        0.0176
     22 C          61.2573   85.8064    8.1590 C.ar    1  UNL1        0.0824
     23 O          63.5837   84.7101    8.5278 O.3     1  UNL1       -0.4715
     24 C          63.5953   84.2637    9.9598 C.3     1  UNL1        0.2374
     25 C          64.0301   82.8708   10.3077 C.3     1  UNL1        0.1894
     26 C          63.0869   81.2492   12.1050 C.3     1  UNL1        0.1743
     27 O          63.9724   82.4006   11.7309 O.3     1  UNL1       -0.3471
     28 C          66.7688   94.3769   11.3310 C.ar    1  UNL1        0.0766
     29 C          66.4461   95.8262   11.5439 C.ar    1  UNL1        0.1033
     30 N          66.9445   96.8559   10.5736 N.ar    1  UNL1       -0.2422
     31 C          67.7656   96.4363    9.3906 C.ar    1  UNL1        0.0988
     32 C          68.0883   94.9869    9.1777 C.ar    1  UNL1        0.0247
     33 C          67.5899   93.9573   10.1479 C.ar    1  UNL1        0.0788
     34 C          67.9126   92.5079    9.9351 C.3     1  UNL1        0.4188
     35 F          68.2353   91.0585    9.7224 F       1  UNL1       -0.1659
     36 F          68.8005   92.5282   11.1438 F       1  UNL1       -0.1659
     37 F          67.0246   92.4876    8.7263 F       1  UNL1       -0.1659
     38 O          63.7120   90.0807   13.9349 O.3     1  UNL1       -0.4723
     39 C          63.8214   88.5996   14.1462 C.ar    1  UNL1        0.1390
     40 C          63.9018   87.6775   12.9660 C.ar    1  UNL1        0.0369
     41 C          64.0112   86.1965   13.1773 C.ar    1  UNL1        0.0070
     42 C          64.0402   85.6376   14.5690 C.ar    1  UNL1        0.0716
     43 C          63.9597   86.5597   15.7493 C.ar    1  UNL1        0.0070
     44 C          63.8503   88.0408   15.5380 C.ar    1  UNL1        0.0369
     45 C          64.1495   84.1566   14.7803 C.3     1  UNL1        0.4186
     46 F          64.2590   82.6756   14.9916 F       1  UNL1       -0.1659
     47 F          62.7959   83.9591   15.3957 F       1  UNL1       -0.1659
     48 F          65.5268   84.1737   14.1862 F       1  UNL1       -0.1659
     49 C          65.2736   91.2879   14.2418 C.3     1  UNL1        0.0557
     50 C          64.6232   91.7789   15.5012 C.3     1  UNL1        0.1415
     51 O          63.1841   91.6228   15.8941 O.3     1  UNL1       -0.3818
     52 H          63.0386   92.0358   16.7597 H       1  UNL1        0.2104
     53 C          65.4343   92.5141   16.5266 C.3     1  UNL1        0.1663
     54 O          64.5935   93.1440   17.5973 O.3     1  UNL1       -0.3795
     55 H          63.9999   93.7993   17.1985 H       1  UNL1        0.2105
@<TRIPOS>BOND
     1    26    27    1
     2    27    25    1
     3    25    24    1
     4    24    23    1
     5    23    17    1
     6    17    18   ar
     7    18    19   ar
     8    19    20   ar
     9    20    21   ar
    10    21    22   ar
    11    22     9    1
    12     9    10    1
    13    10    11    1
    14    11    12    1
    15    12    13   am
    16    13    14    2
    17    13     1    1
    18     1    38    1
    19    38    39    1
    20    39    40   ar
    21    40    41   ar
    22    41    42   ar
    23    42    45    1
    24    45    46    1
    25    45    47    1
    26    45    48    1
    27    42    43   ar
    28    43    44   ar
    29     1     2    1
    30     2     3    1
    31     3     4    1
    32     4     5    1
    33     5     6   am
    34     6     7    2
    35     6    28    1
    36    28    29   ar
    37    29    30   ar
    38    30    31   ar
    39    31    32   ar
    40    32    33   ar
    41    33    34    1
    42    34    35    1
    43    34    36    1
    44    34    37    1
    45     5     8    1
    46     8    49    1
    47    49    50    1
    48    50    51    1
    49    50    53    1
    50    53    54    1
    51    12    15    1
    52    15    16    1
    53    22    17   ar
    54    16     9    1
    55     8     1    1
    56    44    39   ar
    57    33    28   ar
    58    51    52    1
    59    54    55    1
