@<TRIPOS>MOLECULE
*****
 31 33 0 0 0
SMALL
GASTEIGER

@<TRIPOS>ATOM
      1 C          63.8559   89.4998   15.0581 C.2     1  UNL1        0.2309
      2 O          62.4841   89.3332   15.6416 O.2     1  UNL1       -0.2744
      3 N          64.6682   88.2921   14.6950 N.am    1  UNL1       -0.2787
      4 H          65.5685   88.4014   14.3120 H       1  UNL1        0.1553
      5 C          64.1087   86.9179   14.9155 C.ar    1  UNL1        0.0807
      6 C          63.9376   85.8573   13.8688 C.ar    1  UNL1        0.0219
      7 C          63.3453   84.6470   14.5277 C.ar    1  UNL1        0.0084
      8 C          63.1502   84.9596   15.9818 C.ar    1  UNL1        0.0367
      9 S          63.6221   86.3632   16.2214 S.2     1  UNL1       -0.0717
     10 C          63.0073   83.3514   13.8514 C.ar    1  UNL1        0.0049
     11 C          62.2126   82.3094   14.5812 C.ar    1  UNL1        0.0208
     12 C          61.8745   81.0139   13.9050 C.ar    1  UNL1        0.1003
     13 N          62.3313   80.7604   12.4988 N.ar    1  UNL1       -0.2296
     14 C          63.1260   81.8024   11.7690 C.ar    1  UNL1        0.1254
     15 N          63.5827   81.5489   10.3629 N.pl3   1  UNL1       -0.3426
     16 C          63.4640   83.0979   12.4453 C.ar    1  UNL1        0.0339
     17 H          63.3609   80.6986    9.9190 H       1  UNL1        0.1437
     18 H          64.1043   82.2328    9.8839 H       1  UNL1        0.1437
     19 C          64.4154   90.8739   14.8376 C.3     1  UNL1        0.1117
     20 C          65.7942   92.9773   11.7677 C.ar    1  UNL1        0.0641
     21 C          64.9433   92.4438   10.6535 C.ar    1  UNL1        0.0158
     22 C          63.9165   91.3870   10.9341 C.ar    1  UNL1        0.0010
     23 C          63.7405   90.8637   12.3287 C.ar    1  UNL1       -0.0037
     24 C          64.5914   91.3972   13.4429 C.ar    1  UNL1       -0.0118
     25 C          65.6182   92.4540   13.1623 C.ar    1  UNL1        0.0121
     26 N          66.8210   94.0342   11.4871 N.pl3   1  UNL1       -0.2187
     27 H          67.3650   94.3994   12.2220 H       1  UNL1        0.1734
     28 C          67.2172   95.0350    8.6869 C.3     1  UNL1        0.1996
     29 S          67.0191   94.5346   10.0870 S.O2    1  UNL1        0.0558
     30 O          68.1120   93.5279    9.8818 O.2     1  UNL1       -0.1544
     31 O          65.9262   95.5413   10.2922 O.2     1  UNL1       -0.1544
@<TRIPOS>BOND
     1    28    29    1
     2    29    30    2
     3    29    31    2
     4    29    26    1
     5    26    20    1
     6    20    21   ar
     7    21    22   ar
     8    22    23   ar
     9    23    24   ar
    10    24    19    1
    11    19     1    1
    12     1     2    2
    13     1     3   am
    14     3     5    1
    15     5     6   ar
    16     6     7   ar
    17     7    10    1
    18    10    11   ar
    19    11    12   ar
    20    12    13   ar
    21    13    14   ar
    22    14    15    1
    23    14    16   ar
    24     7     8   ar
    25     8     9   ar
    26    24    25   ar
    27    25    20   ar
    28     9     5   ar
    29    16    10   ar
    30    26    27    1
    31     3     4    1
    32    15    17    1
    33    15    18    1
@<TRIPOS>MOLECULE
*****
 31 33 0 0 0
SMALL
GASTEIGER

@<TRIPOS>ATOM
      1 C          62.2039   87.6430   11.0838 C.2     1  UNL1        0.2309
      2 O          62.2341   88.6991   10.0190 O.2     1  UNL1       -0.2744
      3 N          62.8175   87.9131   12.4257 N.am    1  UNL1       -0.2787
      4 H          62.7978   87.2199   13.1245 H       1  UNL1        0.1553
      5 C          63.4613   89.2393   12.7027 C.ar    1  UNL1        0.0807
      6 C          64.6126   89.4833   13.6327 C.ar    1  UNL1        0.0219
      7 C          64.9296   90.9491   13.6032 C.ar    1  UNL1        0.0084
      8 C          63.9741   91.6111   12.6550 C.ar    1  UNL1        0.0367
      9 S          63.0666   90.5543   12.0985 S.2     1  UNL1       -0.0717
     10 C          66.0120   91.6330   14.3847 C.ar    1  UNL1        0.0049
     11 C          65.6886   92.3000   15.6887 C.ar    1  UNL1        0.0208
     12 C          66.7709   92.9838   16.4702 C.ar    1  UNL1        0.1003
     13 N          68.1769   93.0007   15.9476 N.ar    1  UNL1       -0.2296
     14 C          68.5004   92.3338   14.6436 C.ar    1  UNL1        0.1254
     15 N          69.9063   92.3507   14.1211 N.pl3   1  UNL1       -0.3426
     16 C          67.4180   91.6499   13.8621 C.ar    1  UNL1        0.0339
     17 H          70.6167   92.7995   14.6340 H       1  UNL1        0.1437
     18 H          70.1187   91.9129   13.2652 H       1  UNL1        0.1437
     19 C          61.5602   86.3168   10.8067 C.3     1  UNL1        0.1117
     20 C          63.3063   82.9458   11.9634 C.ar    1  UNL1        0.0641
     21 C          64.0604   82.5763   10.7205 C.ar    1  UNL1        0.0158
     22 C          63.9812   83.4536    9.5064 C.ar    1  UNL1        0.0010
     23 C          63.1478   84.7004    9.5351 C.ar    1  UNL1       -0.0037
     24 C          62.3936   85.0699   10.7780 C.ar    1  UNL1       -0.0118
     25 C          62.4729   84.1926   11.9921 C.ar    1  UNL1        0.0121
     26 N          63.3856   82.0685   13.1775 N.pl3   1  UNL1       -0.2187
     27 H          64.2470   81.9399   13.6364 H       1  UNL1        0.1734
     28 C          60.9191   80.7060   14.2072 C.3     1  UNL1        0.1996
     29 S          62.1524   81.3873   13.6924 S.O2    1  UNL1        0.0558
     30 O          62.3540   80.2762   12.7051 O.2     1  UNL1       -0.1544
     31 O          61.9508   82.4984   14.6796 O.2     1  UNL1       -0.1544
@<TRIPOS>BOND
     1    28    29    1
     2    29    30    2
     3    29    31    2
     4    29    26    1
     5    26    20    1
     6    20    21   ar
     7    21    22   ar
     8    22    23   ar
     9    23    24   ar
    10    24    19    1
    11    19     1    1
    12     1     2    2
    13     1     3   am
    14     3     5    1
    15     5     6   ar
    16     6     7   ar
    17     7    10    1
    18    10    11   ar
    19    11    12   ar
    20    12    13   ar
    21    13    14   ar
    22    14    15    1
    23    14    16   ar
    24     7     8   ar
    25     8     9   ar
    26    24    25   ar
    27    25    20   ar
    28     9     5   ar
    29    16    10   ar
    30    26    27    1
    31     3     4    1
    32    15    17    1
    33    15    18    1
@<TRIPOS>MOLECULE
*****
 31 33 0 0 0
SMALL
GASTEIGER

@<TRIPOS>ATOM
      1 C          63.6553   89.6868   15.2352 C.2     1  UNL1        0.2309
      2 O          62.3463   89.3222   15.8706 O.2     1  UNL1       -0.2744
      3 N          64.5617   88.6109   14.7146 N.am    1  UNL1       -0.2787
      4 H          65.4208   88.8502   14.2976 H       1  UNL1        0.1553
      5 C          64.1592   87.1705   14.8294 C.ar    1  UNL1        0.0807
      6 C          64.0174   86.2015   13.6933 C.ar    1  UNL1        0.0219
      7 C          63.5984   84.8783   14.2622 C.ar    1  UNL1        0.0084
      8 C          63.4812   85.0296   15.7500 C.ar    1  UNL1        0.0367
      9 S          63.8278   86.4463   16.1005 S.2     1  UNL1       -0.0717
     10 C          63.3416   83.6240   13.4806 C.ar    1  UNL1        0.0049
     11 C          63.9916   83.4275   12.1432 C.ar    1  UNL1        0.0208
     12 C          63.7350   82.1733   11.3616 C.ar    1  UNL1        0.1003
     13 N          62.8281   81.1155   11.9174 N.ar    1  UNL1       -0.2296
     14 C          62.1781   81.3121   13.2549 C.ar    1  UNL1        0.1254
     15 N          61.2714   80.2543   13.8108 N.pl3   1  UNL1       -0.3426
     16 C          62.4349   82.5663   14.0365 C.ar    1  UNL1        0.0339
     17 H          61.1028   79.4311   13.2978 H       1  UNL1        0.1437
     18 H          60.8447   80.3833   14.6886 H       1  UNL1        0.1437
     19 C          64.0578   91.1272   15.1204 C.3     1  UNL1        0.1117
     20 C          66.2187   92.2967   12.0038 C.ar    1  UNL1        0.0641
     21 C          67.5981   92.2794   12.5928 C.ar    1  UNL1        0.0158
     22 C          67.7974   91.8781   14.0243 C.ar    1  UNL1        0.0010
     23 C          66.6174   91.4940   14.8668 C.ar    1  UNL1       -0.0037
     24 C          65.2380   91.5113   14.2778 C.ar    1  UNL1       -0.0118
     25 C          65.0386   91.9126   12.8464 C.ar    1  UNL1        0.0121
     26 N          66.0193   92.6981   10.5723 N.pl3   1  UNL1       -0.2187
     27 H          65.4392   92.1601    9.9865 H       1  UNL1        0.1734
     28 C          67.3883   95.1403    9.4946 C.3     1  UNL1        0.1996
     29 S          66.7038   93.9192   10.0335 S.O2    1  UNL1        0.0558
     30 O          67.6488   93.0481    9.2600 O.2     1  UNL1       -0.1544
     31 O          65.7588   94.7902   10.8069 O.2     1  UNL1       -0.1544
@<TRIPOS>BOND
     1    28    29    1
     2    29    30    2
     3    29    31    2
     4    29    26    1
     5    26    20    1
     6    20    21   ar
     7    21    22   ar
     8    22    23   ar
     9    23    24   ar
    10    24    19    1
    11    19     1    1
    12     1     2    2
    13     1     3   am
    14     3     5    1
    15     5     6   ar
    16     6     7   ar
    17     7    10    1
    18    10    11   ar
    19    11    12   ar
    20    12    13   ar
    21    13    14   ar
    22    14    15    1
    23    14    16   ar
    24     7     8   ar
    25     8     9   ar
    26    24    25   ar
    27    25    20   ar
    28     9     5   ar
    29    16    10   ar
    30    26    27    1
    31     3     4    1
    32    15    17    1
    33    15    18    1
@<TRIPOS>MOLECULE
*****
 31 33 0 0 0
SMALL
GASTEIGER

@<TRIPOS>ATOM
      1 C          63.2370   89.2306   12.6903 C.2     1  UNL1        0.2309
      2 O          63.8835   88.1653   13.5253 O.2     1  UNL1       -0.2744
      3 N          62.5089   88.8590   11.4326 N.am    1  UNL1       -0.2787
      4 H          62.0846   89.5582   10.8846 H       1  UNL1        0.1553
      5 C          62.4272   87.4222   11.0099 C.ar    1  UNL1        0.0807
      6 C          62.7117   86.2309   11.8759 C.ar    1  UNL1        0.0219
      7 C          62.5071   84.9967   11.0483 C.ar    1  UNL1        0.0084
      8 C          62.0961   85.4253    9.6707 C.ar    1  UNL1        0.0367
      9 S          62.0467   86.9242    9.6471 S.2     1  UNL1       -0.0717
     10 C          62.6826   83.5824   11.5160 C.ar    1  UNL1        0.0049
     11 C          63.1384   82.5254   10.5542 C.ar    1  UNL1        0.0208
     12 C          63.3140   81.1111   11.0218 C.ar    1  UNL1        0.1003
     13 N          63.0336   80.7536   12.4515 N.ar    1  UNL1       -0.2296
     14 C          62.5778   81.8105   13.4133 C.ar    1  UNL1        0.1254
     15 N          62.2975   81.4531   14.8428 N.pl3   1  UNL1       -0.3426
     16 C          62.4023   83.2249   12.9456 C.ar    1  UNL1        0.0339
     17 H          62.4127   80.5248   15.1498 H       1  UNL1        0.1437
     18 H          61.9983   82.1468   15.4741 H       1  UNL1        0.1437
     19 C          63.3187   90.6675   13.1130 C.3     1  UNL1        0.1117
     20 C          66.5540   92.8807   12.4926 C.ar    1  UNL1        0.0641
     21 C          67.3320   92.6025   13.7444 C.ar    1  UNL1        0.0158
     22 C          66.7723   91.6794   14.7858 C.ar    1  UNL1        0.0010
     23 C          65.4346   91.0344   14.5754 C.ar    1  UNL1       -0.0037
     24 C          64.6565   91.3125   13.3235 C.ar    1  UNL1       -0.0118
     25 C          65.2162   92.2357   12.2821 C.ar    1  UNL1        0.0121
     26 N          67.1137   93.8039   11.4512 N.pl3   1  UNL1       -0.2187
     27 H          68.0480   93.7054   11.1571 H       1  UNL1        0.1734
     28 C          65.3859   95.9503   10.2647 C.3     1  UNL1        0.1996
     29 S          66.2498   94.8771   10.8580 S.O2    1  UNL1        0.0558
     30 O          66.3529   94.2175    9.5147 O.2     1  UNL1       -0.1544
     31 O          66.1467   95.5366   12.2012 O.2     1  UNL1       -0.1544
@<TRIPOS>BOND
     1    28    29    1
     2    29    30    2
     3    29    31    2
     4    29    26    1
     5    26    20    1
     6    20    21   ar
     7    21    22   ar
     8    22    23   ar
     9    23    24   ar
    10    24    19    1
    11    19     1    1
    12     1     2    2
    13     1     3   am
    14     3     5    1
    15     5     6   ar
    16     6     7   ar
    17     7    10    1
    18    10    11   ar
    19    11    12   ar
    20    12    13   ar
    21    13    14   ar
    22    14    15    1
    23    14    16   ar
    24     7     8   ar
    25     8     9   ar
    26    24    25   ar
    27    25    20   ar
    28     9     5   ar
    29    16    10   ar
    30    26    27    1
    31     3     4    1
    32    15    17    1
    33    15    18    1
@<TRIPOS>MOLECULE
*****
 31 33 0 0 0
SMALL
GASTEIGER

@<TRIPOS>ATOM
      1 C          63.8199   89.2918   15.1317 C.2     1  UNL1        0.2309
      2 O          62.7629   89.0387   16.1656 O.2     1  UNL1       -0.2744
      3 N          64.4780   88.1384   14.4340 N.am    1  UNL1       -0.2787
      4 H          65.1717   88.3045   13.7555 H       1  UNL1        0.1553
      5 C          64.0791   86.7320   14.7701 C.ar    1  UNL1        0.0807
      6 C          63.7984   85.6359   13.7853 C.ar    1  UNL1        0.0219
      7 C          63.4367   84.4013   14.5565 C.ar    1  UNL1        0.0084
      8 C          63.4937   84.7344   16.0180 C.ar    1  UNL1        0.0367
      9 S          63.8907   86.1748   16.1500 S.2     1  UNL1       -0.0717
     10 C          63.0804   83.0677   13.9694 C.ar    1  UNL1        0.0049
     11 C          63.9794   82.4326   12.9504 C.ar    1  UNL1        0.0208
     12 C          63.6232   81.0991   12.3633 C.ar    1  UNL1        0.1003
     13 N          62.3679   80.4006   12.7951 N.ar    1  UNL1       -0.2296
     14 C          61.4688   81.0358   13.8141 C.ar    1  UNL1        0.1254
     15 N          60.2136   80.3374   14.2459 N.pl3   1  UNL1       -0.3426
     16 C          61.8251   82.3694   14.4012 C.ar    1  UNL1        0.0339
     17 H          59.9797   79.4622   13.8606 H       1  UNL1        0.1437
     18 H          59.6235   80.7543   14.9147 H       1  UNL1        0.1437
     19 C          64.2188   90.6981   14.7956 C.3     1  UNL1        0.1117
     20 C          63.2693   91.1298   10.9665 C.ar    1  UNL1        0.0641
     21 C          64.3775   92.0260   10.4990 C.ar    1  UNL1        0.0158
     22 C          65.4329   92.4795   11.4636 C.ar    1  UNL1        0.0010
     23 C          65.3800   92.0369   12.8958 C.ar    1  UNL1       -0.0037
     24 C          64.2717   91.1408   13.3634 C.ar    1  UNL1       -0.0118
     25 C          63.2164   90.6872   12.3987 C.ar    1  UNL1        0.0121
     26 N          62.2140   90.6762   10.0018 N.pl3   1  UNL1       -0.2187
     27 H          62.0967   91.1452    9.1442 H       1  UNL1        0.1734
     28 C          60.4606   88.3400   10.6860 C.3     1  UNL1        0.1996
     29 S          61.3373   89.5082   10.3439 S.O2    1  UNL1        0.0558
     30 O          62.4394   88.5674    9.9561 O.2     1  UNL1       -0.1544
     31 O          60.2352   90.4489   10.7317 O.2     1  UNL1       -0.1544
@<TRIPOS>BOND
     1    28    29    1
     2    29    30    2
     3    29    31    2
     4    29    26    1
     5    26    20    1
     6    20    21   ar
     7    21    22   ar
     8    22    23   ar
     9    23    24   ar
    10    24    19    1
    11    19     1    1
    12     1     2    2
    13     1     3   am
    14     3     5    1
    15     5     6   ar
    16     6     7   ar
    17     7    10    1
    18    10    11   ar
    19    11    12   ar
    20    12    13   ar
    21    13    14   ar
    22    14    15    1
    23    14    16   ar
    24     7     8   ar
    25     8     9   ar
    26    24    25   ar
    27    25    20   ar
    28     9     5   ar
    29    16    10   ar
    30    26    27    1
    31     3     4    1
    32    15    17    1
    33    15    18    1
@<TRIPOS>MOLECULE
*****
 31 33 0 0 0
SMALL
GASTEIGER

@<TRIPOS>ATOM
      1 C          62.1953   86.7321   10.6020 C.2     1  UNL1        0.2309
      2 O          62.4502   87.3997    9.2831 O.2     1  UNL1       -0.2744
      3 N          62.3622   87.5034   11.8777 N.am    1  UNL1       -0.2787
      4 H          62.1949   87.0653   12.7433 H       1  UNL1        0.1553
      5 C          62.7839   88.9422   11.8344 C.ar    1  UNL1        0.0807
      6 C          63.8838   89.5633   12.6435 C.ar    1  UNL1        0.0219
      7 C          63.9595   91.0175   12.2837 C.ar    1  UNL1        0.0084
      8 C          62.9064   91.2953   11.2522 C.ar    1  UNL1        0.0367
      9 S          62.1799   90.0127   10.9746 S.2     1  UNL1       -0.0717
     10 C          64.9198   92.0183   12.8550 C.ar    1  UNL1        0.0049
     11 C          65.5015   93.0858   11.9764 C.ar    1  UNL1        0.0208
     12 C          66.4617   94.0866   12.5476 C.ar    1  UNL1        0.1003
     13 N          66.8402   94.0199   13.9976 N.ar    1  UNL1       -0.2296
     14 C          66.2585   92.9524   14.8762 C.ar    1  UNL1        0.1254
     15 N          66.6370   92.8856   16.3261 N.pl3   1  UNL1       -0.3426
     16 C          65.2982   91.9516   14.3049 C.ar    1  UNL1        0.0339
     17 H          67.2672   93.5425   16.7011 H       1  UNL1        0.1437
     18 H          66.2552   92.1850   16.9028 H       1  UNL1        0.1437
     19 C          61.7736   85.2933   10.6452 C.3     1  UNL1        0.1117
     20 C          63.6504   83.3867   13.5764 C.ar    1  UNL1        0.0641
     21 C          64.3041   82.2711   12.8160 C.ar    1  UNL1        0.0158
     22 C          64.1142   82.1629   11.3320 C.ar    1  UNL1        0.0010
     23 C          63.2708   83.1703   10.6084 C.ar    1  UNL1       -0.0037
     24 C          62.6171   84.2858   11.3688 C.ar    1  UNL1       -0.0118
     25 C          62.8070   84.3940   12.8528 C.ar    1  UNL1        0.0121
     26 N          63.8403   83.4948   15.0604 N.pl3   1  UNL1       -0.2187
     27 H          64.1020   82.7021   15.5823 H       1  UNL1        0.1734
     28 C          63.4225   86.1268   16.4382 C.3     1  UNL1        0.1996
     29 S          63.6314   84.8108   15.7493 S.O2    1  UNL1        0.0558
     30 O          62.3155   84.3243   16.2797 O.2     1  UNL1       -0.1544
     31 O          64.9474   85.2973   15.2188 O.2     1  UNL1       -0.1544
@<TRIPOS>BOND
     1    28    29    1
     2    29    30    2
     3    29    31    2
     4    29    26    1
     5    26    20    1
     6    20    21   ar
     7    21    22   ar
     8    22    23   ar
     9    23    24   ar
    10    24    19    1
    11    19     1    1
    12     1     2    2
    13     1     3   am
    14     3     5    1
    15     5     6   ar
    16     6     7   ar
    17     7    10    1
    18    10    11   ar
    19    11    12   ar
    20    12    13   ar
    21    13    14   ar
    22    14    15    1
    23    14    16   ar
    24     7     8   ar
    25     8     9   ar
    26    24    25   ar
    27    25    20   ar
    28     9     5   ar
    29    16    10   ar
    30    26    27    1
    31     3     4    1
    32    15    17    1
    33    15    18    1
@<TRIPOS>MOLECULE
*****
 31 33 0 0 0
SMALL
GASTEIGER

@<TRIPOS>ATOM
      1 C          63.1870   89.2412   12.6309 C.2     1  UNL1        0.2309
      2 O          63.9261   88.2123   13.4341 O.2     1  UNL1       -0.2744
      3 N          62.4351   88.8327   11.3988 N.am    1  UNL1       -0.2787
      4 H          61.9500   89.5080   10.8717 H       1  UNL1        0.1553
      5 C          62.4223   87.3954   10.9701 C.ar    1  UNL1        0.0807
      6 C          62.6599   86.2088   11.8563 C.ar    1  UNL1        0.0219
      7 C          62.5541   84.9723   11.0138 C.ar    1  UNL1        0.0084
      8 C          62.2512   85.3947    9.6067 C.ar    1  UNL1        0.0367
      9 S          62.1697   86.8923    9.5797 S.2     1  UNL1       -0.0717
     10 C          62.7218   83.5612   11.4939 C.ar    1  UNL1        0.0049
     11 C          63.1630   82.4915   10.5393 C.ar    1  UNL1        0.0208
     12 C          63.3307   81.0805   11.0194 C.ar    1  UNL1        0.1003
     13 N          63.0573   80.7388   12.4542 N.ar    1  UNL1       -0.2296
     14 C          62.6161   81.8085   13.4088 C.ar    1  UNL1        0.1254
     15 N          62.3427   81.4669   14.8436 N.pl3   1  UNL1       -0.3426
     16 C          62.4484   83.2196   12.9287 C.ar    1  UNL1        0.0339
     17 H          62.4528   80.5408   15.1587 H       1  UNL1        0.1437
     18 H          62.0532   82.1690   15.4702 H       1  UNL1        0.1437
     19 C          63.1998   90.6785   13.0597 C.3     1  UNL1        0.1117
     20 C          66.3095   93.1409   13.1888 C.ar    1  UNL1        0.0641
     21 C          66.5310   93.3946   11.7271 C.ar    1  UNL1        0.0158
     22 C          65.6422   92.7429   10.7096 C.ar    1  UNL1        0.0010
     23 C          64.5318   91.8375   11.1538 C.ar    1  UNL1       -0.0037
     24 C          64.3102   91.5839   12.6155 C.ar    1  UNL1       -0.0118
     25 C          65.1991   92.2356   13.6330 C.ar    1  UNL1        0.0121
     26 N          67.1983   93.7926   14.2063 N.pl3   1  UNL1       -0.2187
     27 H          67.2871   94.7729   14.2266 H       1  UNL1        0.1734
     28 C          68.7053   92.1088   16.1796 C.3     1  UNL1        0.1996
     29 S          67.9518   92.9507   15.1929 S.O2    1  UNL1        0.0558
     30 O          67.0241   93.3983   16.2833 O.2     1  UNL1       -0.1544
     31 O          68.8794   92.5031   14.1025 O.2     1  UNL1       -0.1544
@<TRIPOS>BOND
     1    28    29    1
     2    29    30    2
     3    29    31    2
     4    29    26    1
     5    26    20    1
     6    20    21   ar
     7    21    22   ar
     8    22    23   ar
     9    23    24   ar
    10    24    19    1
    11    19     1    1
    12     1     2    2
    13     1     3   am
    14     3     5    1
    15     5     6   ar
    16     6     7   ar
    17     7    10    1
    18    10    11   ar
    19    11    12   ar
    20    12    13   ar
    21    13    14   ar
    22    14    15    1
    23    14    16   ar
    24     7     8   ar
    25     8     9   ar
    26    24    25   ar
    27    25    20   ar
    28     9     5   ar
    29    16    10   ar
    30    26    27    1
    31     3     4    1
    32    15    17    1
    33    15    18    1
@<TRIPOS>MOLECULE
*****
 31 33 0 0 0
SMALL
GASTEIGER

@<TRIPOS>ATOM
      1 C          63.0937   89.3333   12.2418 C.2     1  UNL1        0.2309
      2 O          63.7446   88.5351   13.3323 O.2     1  UNL1       -0.2744
      3 N          62.4094   88.6325   11.1057 N.am    1  UNL1       -0.2787
      4 H          61.9822   89.1564   10.3899 H       1  UNL1        0.1553
      5 C          62.3760   87.1336   11.0601 C.ar    1  UNL1        0.0807
      6 C          62.7447   86.2090   12.1822 C.ar    1  UNL1        0.0219
      7 C          62.5646   84.8001   11.7002 C.ar    1  UNL1        0.0084
      8 C          62.0845   84.8539   10.2800 C.ar    1  UNL1        0.0367
      9 S          61.9680   86.2961    9.8845 S.2     1  UNL1       -0.0717
     10 C          62.8197   83.5558   12.4981 C.ar    1  UNL1        0.0049
     11 C          63.3005   83.6589   13.9151 C.ar    1  UNL1        0.0208
     12 C          63.5557   82.4147   14.7131 C.ar    1  UNL1        0.1003
     13 N          63.3300   81.0672   14.0939 N.ar    1  UNL1       -0.2296
     14 C          62.8491   80.9640   12.6768 C.ar    1  UNL1        0.1254
     15 N          62.6234   79.6166   12.0576 N.pl3   1  UNL1       -0.3426
     16 C          62.5940   82.2083   11.8789 C.ar    1  UNL1        0.0339
     17 H          62.7909   78.7999   12.5813 H       1  UNL1        0.1437
     18 H          62.3078   79.5489   11.1275 H       1  UNL1        0.1437
     19 C          63.1272   90.8322   12.2873 C.3     1  UNL1        0.1117
     20 C          66.4111   93.0412   11.9936 C.ar    1  UNL1        0.0641
     21 C          66.9304   92.9653   13.3988 C.ar    1  UNL1        0.0158
     22 C          66.1819   92.1784   14.4335 C.ar    1  UNL1        0.0010
     23 C          64.9142   91.4674   14.0630 C.ar    1  UNL1       -0.0037
     24 C          64.3950   91.5433   12.6578 C.ar    1  UNL1       -0.0118
     25 C          65.1434   92.3302   11.6231 C.ar    1  UNL1        0.0121
     26 N          67.1596   93.8281   10.9589 N.pl3   1  UNL1       -0.2187
     27 H          67.1692   94.8117   11.0003 H       1  UNL1        0.1734
     28 C          68.6275   92.4047    8.7636 C.3     1  UNL1        0.1996
     29 S          67.8935   93.1164    9.8613 S.O2    1  UNL1        0.0558
     30 O          68.5046   92.1901   10.8705 O.2     1  UNL1       -0.1544
     31 O          67.2824   94.0427    8.8521 O.2     1  UNL1       -0.1544
@<TRIPOS>BOND
     1    28    29    1
     2    29    30    2
     3    29    31    2
     4    29    26    1
     5    26    20    1
     6    20    21   ar
     7    21    22   ar
     8    22    23   ar
     9    23    24   ar
    10    24    19    1
    11    19     1    1
    12     1     2    2
    13     1     3   am
    14     3     5    1
    15     5     6   ar
    16     6     7   ar
    17     7    10    1
    18    10    11   ar
    19    11    12   ar
    20    12    13   ar
    21    13    14   ar
    22    14    15    1
    23    14    16   ar
    24     7     8   ar
    25     8     9   ar
    26    24    25   ar
    27    25    20   ar
    28     9     5   ar
    29    16    10   ar
    30    26    27    1
    31     3     4    1
    32    15    17    1
    33    15    18    1
@<TRIPOS>MOLECULE
*****
 31 33 0 0 0
SMALL
GASTEIGER

@<TRIPOS>ATOM
      1 C          64.3452   85.6684   15.2782 C.2     1  UNL1        0.2309
      2 O          65.7336   86.1309   14.9487 O.2     1  UNL1       -0.2744
      3 N          63.2750   86.6717   15.5911 N.am    1  UNL1       -0.2787
      4 H          62.3637   86.3682   15.8074 H       1  UNL1        0.1553
      5 C          63.5931   88.1375   15.5745 C.ar    1  UNL1        0.0807
      6 C          64.3848   88.8559   14.5224 C.ar    1  UNL1        0.0219
      7 C          64.4563   90.3046   14.9046 C.ar    1  UNL1        0.0084
      8 C          63.7088   90.4816   16.1930 C.ar    1  UNL1        0.0367
      9 S          63.1753   89.1422   16.6070 S.2     1  UNL1       -0.0717
     10 C          65.1531   91.3865   14.1338 C.ar    1  UNL1        0.0049
     11 C          66.2181   92.2110   14.7941 C.ar    1  UNL1        0.0208
     12 C          66.9148   93.2928   14.0234 C.ar    1  UNL1        0.1003
     13 N          66.5466   93.5503   12.5922 N.ar    1  UNL1       -0.2296
     14 C          65.4816   92.7258   11.9319 C.ar    1  UNL1        0.1254
     15 N          65.1133   92.9833   10.5008 N.pl3   1  UNL1       -0.3426
     16 C          64.7848   91.6440   12.7027 C.ar    1  UNL1        0.0339
     17 H          65.5706   93.6933    9.9949 H       1  UNL1        0.1437
     18 H          64.4143   92.4421   10.0674 H       1  UNL1        0.1437
     19 C          64.0272   84.2026   15.2949 C.3     1  UNL1        0.1117
     20 C          63.3600   83.5156   11.4435 C.ar    1  UNL1        0.0641
     21 C          62.8096   82.1212   11.4955 C.ar    1  UNL1        0.0158
     22 C          62.6650   81.4206   12.8140 C.ar    1  UNL1        0.0010
     23 C          63.0708   82.1144   14.0804 C.ar    1  UNL1       -0.0037
     24 C          63.6213   83.5088   14.0284 C.ar    1  UNL1       -0.0118
     25 C          63.7659   84.2093   12.7099 C.ar    1  UNL1        0.0121
     26 N          63.5046   84.2161   10.1251 N.pl3   1  UNL1       -0.2187
     27 H          64.2595   83.9980    9.5319 H       1  UNL1        0.1734
     28 C          61.4935   86.2819    9.2955 C.3     1  UNL1        0.1996
     29 S          62.4991   85.2490    9.7103 S.O2    1  UNL1        0.0558
     30 O          63.1772   85.3743    8.3783 O.2     1  UNL1       -0.1544
     31 O          61.8209   85.1236   11.0424 O.2     1  UNL1       -0.1544
@<TRIPOS>BOND
     1    28    29    1
     2    29    30    2
     3    29    31    2
     4    29    26    1
     5    26    20    1
     6    20    21   ar
     7    21    22   ar
     8    22    23   ar
     9    23    24   ar
    10    24    19    1
    11    19     1    1
    12     1     2    2
    13     1     3   am
    14     3     5    1
    15     5     6   ar
    16     6     7   ar
    17     7    10    1
    18    10    11   ar
    19    11    12   ar
    20    12    13   ar
    21    13    14   ar
    22    14    15    1
    23    14    16   ar
    24     7     8   ar
    25     8     9   ar
    26    24    25   ar
    27    25    20   ar
    28     9     5   ar
    29    16    10   ar
    30    26    27    1
    31     3     4    1
    32    15    17    1
    33    15    18    1
