@<TRIPOS>MOLECULE
*****
 24 25 0 0 0
SMALL
GASTEIGER

@<TRIPOS>ATOM
      1 N          62.8993   83.2835   12.9437 N.3     1  UNL1       -0.2711
      2 C          62.3974   83.6181   11.5704 C.3     1  UNL1        0.0939
      3 C          62.3765   85.0444   11.1063 C.3     1  UNL1        0.1123
      4 N          62.8574   86.1361   12.0156 N.am    1  UNL1       -0.2612
      5 C          62.8365   87.5623   11.5516 C.2     1  UNL1        0.3072
      6 O          62.3346   87.8969   10.1783 O.2     1  UNL1       -0.2523
      7 N          63.3175   88.6540   12.4609 N.am    1  UNL1       -0.2640
      8 C          63.8194   88.3194   13.8343 C.3     1  UNL1        0.0955
      9 C          64.3004   89.4111   14.7437 C.3     1  UNL1        0.0327
     10 C          64.2794   90.8374   14.2796 C.3     1  UNL1        0.1025
     11 C          63.7775   91.1720   12.9063 C.3     1  UNL1        0.0327
     12 C          63.2965   90.0803   11.9969 C.3     1  UNL1        0.0955
     13 C          63.3593   85.8015   13.3890 C.3     1  UNL1        0.1123
     14 C          63.3802   84.3752   13.8530 C.3     1  UNL1        0.0939
     15 C          64.2210   81.1151   13.4924 C.3     1  UNL1        0.0173
     16 C          62.9202   81.8573   13.4077 C.3     1  UNL1        0.0577
     17 C          61.6404   81.1731   13.7871 C.3     1  UNL1        0.0173
     18 C          64.7604   91.9291   15.1890 C.2     1  UNL1        0.3163
     19 O          64.2121   92.0420   16.5806 O.2     1  UNL1       -0.2501
     20 O          65.7897   92.9078   14.7068 O.3     1  UNL1       -0.4558
     21 C          67.2441   92.5418   14.7356 C.3     1  UNL1        0.1363
     22 C          67.2699   92.7610   16.2192 C.3     1  UNL1        0.0437
     23 C          67.2183   92.3226   13.2520 C.3     1  UNL1        0.0437
     24 C          68.6985   92.1758   14.7645 C.3     1  UNL1        0.0437
@<TRIPOS>BOND
     1    15    16    1
     2    16    17    1
     3    16     1    1
     4     1     2    1
     5     2     3    1
     6     3     4    1
     7     4     5   am
     8     5     6    2
     9     5     7   am
    10     7     8    1
    11     8     9    1
    12     9    10    1
    13    10    18    1
    14    18    19    2
    15    18    20    1
    16    20    21    1
    17    21    22    1
    18    21    23    1
    19    21    24    1
    20    10    11    1
    21    11    12    1
    22     4    13    1
    23    13    14    1
    24    14     1    1
    25    12     7    1
@<TRIPOS>MOLECULE
*****
 24 25 0 0 0
SMALL
GASTEIGER

@<TRIPOS>ATOM
      1 N          63.1221   82.7956   13.3316 N.3     1  UNL1       -0.2711
      2 C          62.7805   82.6513   14.7850 C.3     1  UNL1        0.0939
      3 C          62.8073   83.8513   15.6846 C.3     1  UNL1        0.1123
      4 N          63.1756   85.1957   15.1307 N.am    1  UNL1       -0.2612
      5 C          63.2024   86.3958   16.0303 C.2     1  UNL1        0.3072
      6 O          62.8608   86.2514   17.4837 O.2     1  UNL1       -0.2523
      7 N          63.5708   87.7402   15.4764 N.am    1  UNL1       -0.2640
      8 C          63.9124   87.8846   14.0229 C.3     1  UNL1        0.0955
      9 C          64.2808   89.2290   13.4690 C.3     1  UNL1        0.0327
     10 C          64.3076   90.4291   14.3686 C.3     1  UNL1        0.1025
     11 C          63.9660   90.2847   15.8220 C.3     1  UNL1        0.0327
     12 C          63.5976   88.9402   16.3759 C.3     1  UNL1        0.0955
     13 C          63.5172   85.3401   13.6773 C.3     1  UNL1        0.1123
     14 C          63.4905   84.1400   12.7778 C.3     1  UNL1        0.0939
     15 C          63.4456   81.7383   10.9806 C.3     1  UNL1        0.0173
     16 C          63.0953   81.5956   12.4321 C.3     1  UNL1        0.0577
     17 C          62.7182   80.2528   12.9841 C.3     1  UNL1        0.0173
     18 C          64.6760   91.7735   13.8146 C.2     1  UNL1        0.3163
     19 O          64.2146   92.1720   12.4441 O.2     1  UNL1       -0.2501
     20 O          65.5058   92.7194   14.6312 O.3     1  UNL1       -0.4558
     21 C          66.9744   92.4693   14.8062 C.3     1  UNL1        0.1363
     22 C          66.8363   92.6919   16.2831 C.3     1  UNL1        0.0437
     23 C          67.1124   92.2467   13.3293 C.3     1  UNL1        0.0437
     24 C          68.4430   92.2192   14.9812 C.3     1  UNL1        0.0437
@<TRIPOS>BOND
     1    15    16    1
     2    16    17    1
     3    16     1    1
     4     1     2    1
     5     2     3    1
     6     3     4    1
     7     4     5   am
     8     5     6    2
     9     5     7   am
    10     7     8    1
    11     8     9    1
    12     9    10    1
    13    10    18    1
    14    18    19    2
    15    18    20    1
    16    20    21    1
    17    21    22    1
    18    21    23    1
    19    21    24    1
    20    10    11    1
    21    11    12    1
    22     4    13    1
    23    13    14    1
    24    14     1    1
    25    12     7    1
@<TRIPOS>MOLECULE
*****
 24 25 0 0 0
SMALL
GASTEIGER

@<TRIPOS>ATOM
      1 N          60.8273   87.9510    9.2834 N.3     1  UNL1       -0.2711
      2 C          60.9488   87.2265   10.5912 C.3     1  UNL1        0.0939
      3 C          61.8222   87.7808   11.6774 C.3     1  UNL1        0.1123
      4 N          62.5742   89.0597   11.4558 N.am    1  UNL1       -0.2612
      5 C          63.4476   89.6140   12.5419 C.2     1  UNL1        0.3072
      6 O          63.5692   88.8895   13.8497 O.2     1  UNL1       -0.2523
      7 N          64.1996   90.8928   12.3203 N.am    1  UNL1       -0.2640
      8 C          64.0781   91.6174   11.0125 C.3     1  UNL1        0.0955
      9 C          64.8300   92.8962   10.7909 C.3     1  UNL1        0.0327
     10 C          65.7035   93.4506   11.8771 C.3     1  UNL1        0.1025
     11 C          65.8250   92.7261   13.1848 C.3     1  UNL1        0.0327
     12 C          65.0730   91.4472   13.4065 C.3     1  UNL1        0.0955
     13 C          62.4526   89.7841   10.1480 C.3     1  UNL1        0.1123
     14 C          61.5792   89.2298    9.0618 C.3     1  UNL1        0.0939
     15 C          60.0658   85.9522    7.8086 C.3     1  UNL1        0.0173
     16 C          59.9538   87.3966    8.1973 C.3     1  UNL1        0.0577
     17 C          58.9683   88.2867    7.4997 C.3     1  UNL1        0.0173
     18 C          66.4554   94.7295   11.6554 C.2     1  UNL1        0.3163
     19 O          66.0885   95.9594   12.4317 O.2     1  UNL1       -0.2501
     20 O          67.5742   94.7784   10.6575 O.3     1  UNL1       -0.4558
     21 C          67.2742   95.0012    9.2048 C.3     1  UNL1        0.1363
     22 C          66.6510   96.3246    9.5365 C.3     1  UNL1        0.0437
     23 C          67.8974   93.6777    8.8732 C.3     1  UNL1        0.0437
     24 C          66.9742   95.2240    7.7521 C.3     1  UNL1        0.0437
@<TRIPOS>BOND
     1    15    16    1
     2    16    17    1
     3    16     1    1
     4     1     2    1
     5     2     3    1
     6     3     4    1
     7     4     5   am
     8     5     6    2
     9     5     7   am
    10     7     8    1
    11     8     9    1
    12     9    10    1
    13    10    18    1
    14    18    19    2
    15    18    20    1
    16    20    21    1
    17    21    22    1
    18    21    23    1
    19    21    24    1
    20    10    11    1
    21    11    12    1
    22     4    13    1
    23    13    14    1
    24    14     1    1
    25    12     7    1
@<TRIPOS>MOLECULE
*****
 24 25 0 0 0
SMALL
GASTEIGER

@<TRIPOS>ATOM
      1 N          60.4413   87.7121    8.9492 N.3     1  UNL1       -0.2711
      2 C          60.8435   86.3465    9.4218 C.3     1  UNL1        0.0939
      3 C          61.7278   86.1994   10.6245 C.3     1  UNL1        0.1123
      4 N          62.2099   87.4178   11.3545 N.am    1  UNL1       -0.2612
      5 C          63.0943   87.2707   12.5571 C.2     1  UNL1        0.3072
      6 O          63.4965   85.9051   13.0298 O.2     1  UNL1       -0.2523
      7 N          63.5763   88.4891   13.2871 N.am    1  UNL1       -0.2640
      8 C          63.1741   89.8548   12.8145 C.3     1  UNL1        0.0955
      9 C          63.6562   91.0732   13.5445 C.3     1  UNL1        0.0327
     10 C          64.5405   90.9261   14.7471 C.3     1  UNL1        0.1025
     11 C          64.9428   89.5605   15.2198 C.3     1  UNL1        0.0327
     12 C          64.4607   88.3420   14.4898 C.3     1  UNL1        0.0955
     13 C          61.8077   88.7834   10.8818 C.3     1  UNL1        0.1123
     14 C          60.9234   88.9305    9.6792 C.3     1  UNL1        0.0939
     15 C          58.7490   86.6918    7.2625 C.3     1  UNL1        0.0173
     16 C          59.5570   87.8592    7.7466 C.3     1  UNL1        0.0577
     17 C          59.4807   89.1736    7.0280 C.3     1  UNL1        0.0173
     18 C          65.0226   92.1446   15.4772 C.2     1  UNL1        0.3163
     19 O          64.4843   92.4643   16.8402 O.2     1  UNL1       -0.2501
     20 O          66.0431   93.0435   14.8441 O.3     1  UNL1       -0.4558
     21 C          67.1738   92.4546   14.0538 C.3     1  UNL1        0.1363
     22 C          66.5601   92.9750   12.7879 C.3     1  UNL1        0.0437
     23 C          67.7876   91.9342   15.3197 C.3     1  UNL1        0.0437
     24 C          68.3046   91.8658   13.2635 C.3     1  UNL1        0.0437
@<TRIPOS>BOND
     1    15    16    1
     2    16    17    1
     3    16     1    1
     4     1     2    1
     5     2     3    1
     6     3     4    1
     7     4     5   am
     8     5     6    2
     9     5     7   am
    10     7     8    1
    11     8     9    1
    12     9    10    1
    13    10    18    1
    14    18    19    2
    15    18    20    1
    16    20    21    1
    17    21    22    1
    18    21    23    1
    19    21    24    1
    20    10    11    1
    21    11    12    1
    22     4    13    1
    23    13    14    1
    24    14     1    1
    25    12     7    1
@<TRIPOS>MOLECULE
*****
 24 25 0 0 0
SMALL
GASTEIGER

@<TRIPOS>ATOM
      1 N          63.1269   82.7852   13.2848 N.3     1  UNL1       -0.2711
      2 C          62.4820   82.5503   14.6185 C.3     1  UNL1        0.0939
      3 C          62.3699   83.6741   15.6057 C.3     1  UNL1        0.1123
      4 N          62.9027   85.0328   15.2591 N.am    1  UNL1       -0.2612
      5 C          62.7905   86.1566   16.2463 C.2     1  UNL1        0.3072
      6 O          62.1457   85.9217   17.5801 O.2     1  UNL1       -0.2523
      7 N          63.3233   87.5152   15.8998 N.am    1  UNL1       -0.2640
      8 C          63.9682   87.7502   14.5660 C.3     1  UNL1        0.0955
      9 C          64.5010   89.1089   14.2194 C.3     1  UNL1        0.0327
     10 C          64.3888   90.2326   15.2066 C.3     1  UNL1        0.1025
     11 C          63.7439   89.9978   16.5403 C.3     1  UNL1        0.0327
     12 C          63.2111   88.6390   16.8870 C.3     1  UNL1        0.0955
     13 C          63.5475   85.2677   13.9254 C.3     1  UNL1        0.1123
     14 C          63.6597   84.1439   12.9382 C.3     1  UNL1        0.0939
     15 C          62.7730   80.2856   12.6713 C.3     1  UNL1        0.0173
     16 C          63.2391   81.6614   12.2976 C.3     1  UNL1        0.0577
     17 C          63.8173   81.9135   10.9367 C.3     1  UNL1        0.0173
     18 C          64.9216   91.5914   14.8600 C.2     1  UNL1        0.3163
     19 O          65.9406   92.2456   15.7452 O.2     1  UNL1       -0.2501
     20 O          64.4354   92.2958   13.6282 O.3     1  UNL1       -0.4558
     21 C          65.2934   92.3345   12.3985 C.3     1  UNL1        0.1363
     22 C          64.2821   91.5028   11.6667 C.3     1  UNL1        0.0437
     23 C          66.3046   93.1663   13.1302 C.3     1  UNL1        0.0437
     24 C          66.1513   92.3732   11.1686 C.3     1  UNL1        0.0437
@<TRIPOS>BOND
     1    15    16    1
     2    16    17    1
     3    16     1    1
     4     1     2    1
     5     2     3    1
     6     3     4    1
     7     4     5   am
     8     5     6    2
     9     5     7   am
    10     7     8    1
    11     8     9    1
    12     9    10    1
    13    10    18    1
    14    18    19    2
    15    18    20    1
    16    20    21    1
    17    21    22    1
    18    21    23    1
    19    21    24    1
    20    10    11    1
    21    11    12    1
    22     4    13    1
    23    13    14    1
    24    14     1    1
    25    12     7    1
@<TRIPOS>MOLECULE
*****
 24 25 0 0 0
SMALL
GASTEIGER

@<TRIPOS>ATOM
      1 N          63.1911   81.9384   12.5983 N.3     1  UNL1       -0.2711
      2 C          63.6576   81.8704   14.0222 C.3     1  UNL1        0.0939
      3 C          63.9480   83.1334   14.7775 C.3     1  UNL1        0.1123
      4 N          63.7719   84.4645   14.1088 N.am    1  UNL1       -0.2612
      5 C          64.0623   85.7275   14.8640 C.2     1  UNL1        0.3072
      6 O          64.5288   85.6595   16.2880 O.2     1  UNL1       -0.2523
      7 N          63.8862   87.0586   14.1953 N.am    1  UNL1       -0.2640
      8 C          63.4196   87.1266   12.7713 C.3     1  UNL1        0.0955
      9 C          63.2435   88.4577   12.1026 C.3     1  UNL1        0.0327
     10 C          63.5339   89.7207   12.8578 C.3     1  UNL1        0.1025
     11 C          64.0004   89.6527   14.2818 C.3     1  UNL1        0.0327
     12 C          64.1765   88.3216   14.9506 C.3     1  UNL1        0.0955
     13 C          63.3054   84.5325   12.6848 C.3     1  UNL1        0.1123
     14 C          63.0150   83.2694   11.9296 C.3     1  UNL1        0.0939
     15 C          62.4542   79.4471   12.5792 C.3     1  UNL1        0.0173
     16 C          62.9008   80.6753   11.8430 C.3     1  UNL1        0.0577
     17 C          63.0569   80.6405   10.3516 C.3     1  UNL1        0.0173
     18 C          63.3577   91.0518   12.1890 C.2     1  UNL1        0.3163
     19 O          62.3671   91.2053   11.0732 O.2     1  UNL1       -0.2501
     20 O          64.1722   92.2294   12.6361 O.3     1  UNL1       -0.4558
     21 C          65.5847   92.3894   12.1574 C.3     1  UNL1        0.1363
     22 C          66.0645   92.4047   13.5785 C.3     1  UNL1        0.0437
     23 C          65.1049   92.3740   10.7364 C.3     1  UNL1        0.0437
     24 C          66.9974   92.5494   11.6788 C.3     1  UNL1        0.0437
@<TRIPOS>BOND
     1    15    16    1
     2    16    17    1
     3    16     1    1
     4     1     2    1
     5     2     3    1
     6     3     4    1
     7     4     5   am
     8     5     6    2
     9     5     7   am
    10     7     8    1
    11     8     9    1
    12     9    10    1
    13    10    18    1
    14    18    19    2
    15    18    20    1
    16    20    21    1
    17    21    22    1
    18    21    23    1
    19    21    24    1
    20    10    11    1
    21    11    12    1
    22     4    13    1
    23    13    14    1
    24    14     1    1
    25    12     7    1
@<TRIPOS>MOLECULE
*****
 24 25 0 0 0
SMALL
GASTEIGER

@<TRIPOS>ATOM
      1 N          45.3031   79.7181   18.3733 N.3     1  UNL1       -0.2711
      2 C          46.1132   79.3742   19.5879 C.3     1  UNL1        0.0939
      3 C          46.4494   77.9427   19.8845 C.3     1  UNL1        0.1123
      4 N          45.9756   76.8553   18.9664 N.am    1  UNL1       -0.2612
      5 C          46.3118   75.4239   19.2630 C.2     1  UNL1        0.3072
      6 O          47.1219   75.0799   20.4777 O.2     1  UNL1       -0.2523
      7 N          45.8379   74.3364   18.3450 N.am    1  UNL1       -0.2640
      8 C          45.0278   74.6804   17.1303 C.3     1  UNL1        0.0955
      9 C          44.5540   73.5929   16.2122 C.3     1  UNL1        0.0327
     10 C          44.8902   72.1615   16.5088 C.3     1  UNL1        0.1025
     11 C          45.7003   71.8175   17.7234 C.3     1  UNL1        0.0327
     12 C          46.1742   72.9050   18.6416 C.3     1  UNL1        0.0955
     13 C          45.1655   77.1993   17.7518 C.3     1  UNL1        0.1123
     14 C          44.8293   78.6307   17.4552 C.3     1  UNL1        0.0939
     15 C          45.1802   81.6999   16.6977 C.3     1  UNL1        0.0173
     16 C          44.9669   81.1496   18.0767 C.3     1  UNL1        0.0577
     17 C          44.4174   82.0307   19.1591 C.3     1  UNL1        0.0173
     18 C          44.4163   71.0740   15.5907 C.2     1  UNL1        0.3163
     19 O          43.6334   69.9179   16.1388 O.2     1  UNL1       -0.2501
     20 O          44.7253   71.1427   14.1245 O.3     1  UNL1       -0.4558
     21 C          45.2050   69.9195   13.4010 C.3     1  UNL1        0.1363
     22 C          46.4931   69.9711   14.1679 C.3     1  UNL1        0.0437
     23 C          43.9169   69.8678   12.6341 C.3     1  UNL1        0.0437
     24 C          45.6849   68.6961   12.6775 C.3     1  UNL1        0.0437
@<TRIPOS>BOND
     1    15    16    1
     2    16    17    1
     3    16     1    1
     4     1     2    1
     5     2     3    1
     6     3     4    1
     7     4     5   am
     8     5     6    2
     9     5     7   am
    10     7     8    1
    11     8     9    1
    12     9    10    1
    13    10    18    1
    14    18    19    2
    15    18    20    1
    16    20    21    1
    17    21    22    1
    18    21    23    1
    19    21    24    1
    20    10    11    1
    21    11    12    1
    22     4    13    1
    23    13    14    1
    24    14     1    1
    25    12     7    1
@<TRIPOS>MOLECULE
*****
 24 25 0 0 0
SMALL
GASTEIGER

@<TRIPOS>ATOM
      1 N          62.9351   84.6337   13.2599 N.3     1  UNL1       -0.2711
      2 C          62.0271   84.7929   12.0768 C.3     1  UNL1        0.0939
      3 C          61.9238   86.1192   11.3837 C.3     1  UNL1        0.1123
      4 N          62.7286   87.2862   11.8738 N.am    1  UNL1       -0.2612
      5 C          62.6253   88.6125   11.1807 C.2     1  UNL1        0.3072
      6 O          61.7172   88.7717    9.9975 O.2     1  UNL1       -0.2523
      7 N          63.4301   89.7795   11.6708 N.am    1  UNL1       -0.2640
      8 C          64.3382   89.6204   12.8541 C.3     1  UNL1        0.0955
      9 C          65.1430   90.7874   13.3442 C.3     1  UNL1        0.0327
     10 C          65.0398   92.1137   12.6511 C.3     1  UNL1        0.1025
     11 C          64.1317   92.2729   11.4679 C.3     1  UNL1        0.0327
     12 C          63.3268   91.1058   10.9778 C.3     1  UNL1        0.0955
     13 C          63.6367   87.1270   13.0570 C.3     1  UNL1        0.1123
     14 C          63.7399   85.8007   13.7501 C.3     1  UNL1        0.0939
     15 C          62.4230   83.1193   15.3079 C.3     1  UNL1        0.0173
     16 C          63.0384   83.3074   13.9530 C.3     1  UNL1        0.0577
     17 C          63.7571   82.1693   13.2912 C.3     1  UNL1        0.0173
     18 C          65.8446   93.2807   13.1413 C.2     1  UNL1        0.3163
     19 O          66.6028   94.1315   12.1659 O.2     1  UNL1       -0.2501
     20 O          65.8913   93.5970   14.6068 O.3     1  UNL1       -0.4558
     21 C          66.8723   92.8914   15.4954 C.3     1  UNL1        0.1363
     22 C          65.7603   92.5269   16.4337 C.3     1  UNL1        0.0437
     23 C          67.9844   93.2559   14.5572 C.3     1  UNL1        0.0437
     24 C          67.8534   92.1857   16.3841 C.3     1  UNL1        0.0437
@<TRIPOS>BOND
     1    15    16    1
     2    16    17    1
     3    16     1    1
     4     1     2    1
     5     2     3    1
     6     3     4    1
     7     4     5   am
     8     5     6    2
     9     5     7   am
    10     7     8    1
    11     8     9    1
    12     9    10    1
    13    10    18    1
    14    18    19    2
    15    18    20    1
    16    20    21    1
    17    21    22    1
    18    21    23    1
    19    21    24    1
    20    10    11    1
    21    11    12    1
    22     4    13    1
    23    13    14    1
    24    14     1    1
    25    12     7    1
