@<TRIPOS>MOLECULE
*****
 25 27 0 0 0
SMALL
GASTEIGER

@<TRIPOS>ATOM
      1 C          62.6761   89.2683   10.8971 C.ar    1  UNL1        0.0152
      2 C          63.1196   90.6153   10.4085 C.ar    1  UNL1        0.0043
      3 C          63.8515   91.5442   11.3312 C.ar    1  UNL1        0.0369
      4 C          64.1399   91.1261   12.7427 C.ar    1  UNL1        0.1386
      5 C          63.6963   89.7791   13.2313 C.ar    1  UNL1        0.0369
      6 C          62.9644   88.8502   12.3085 C.ar    1  UNL1        0.0043
      7 C          59.9185   89.9659    9.9436 C.3     1  UNL1        0.0069
      8 C          60.5654   88.6882    9.4976 C.3     1  UNL1        0.0509
      9 C          59.8336   87.7593    8.5748 C.3     1  UNL1        0.0927
     10 C          60.4805   86.4816    8.1288 C.2     1  UNL1        0.2415
     11 O          59.7486   85.5527    7.2060 O.2     1  UNL1       -0.2734
     12 N          61.8592   86.1328    8.6055 N.am    1  UNL1       -0.2062
     13 N          62.5911   87.0617    9.5283 N.2     1  UNL1       -0.1836
     14 C          61.9442   88.3394    9.9743 C.2     1  UNL1        0.0763
     15 H          62.2838   85.2942    8.3128 H       1  UNL1        0.1772
     16 O          64.8717   92.0550   13.6654 O.3     1  UNL1       -0.4754
     17 C          66.2276   91.6804   14.1863 C.3     1  UNL1        0.2068
     18 C          67.4607   92.1373   13.4647 C.3     1  UNL1        0.0646
     19 C          67.5561   91.9896   11.9751 C.3     1  UNL1        0.0759
     20 N          67.2462   93.1561   11.0844 N.3     1  UNL1       -0.2738
     21 C          66.3807   94.3293   11.4371 C.3     1  UNL1        0.0721
     22 C          66.3470   95.2524   10.2553 C.3     1  UNL1        0.0187
     23 C          67.1918   94.6498    9.1721 C.3     1  UNL1        0.0174
     24 C          67.7476   93.3542    9.6845 C.3     1  UNL1        0.0576
     25 C          68.6468   92.4205    8.9297 C.3     1  UNL1        0.0173
@<TRIPOS>BOND
     1     7     8    1
     2     8     9    1
     3     9    10    1
     4    10    11    2
     5    10    12   am
     6    12    13    1
     7    13    14    2
     8    14     1    1
     9     1     2   ar
    10     2     3   ar
    11     3     4   ar
    12     4    16    1
    13    16    17    1
    14    17    18    1
    15    18    19    1
    16    19    20    1
    17    20    21    1
    18    21    22    1
    19    22    23    1
    20    23    24    1
    21    24    25    1
    22     4     5   ar
    23     5     6   ar
    24    14     8    1
    25     6     1   ar
    26    24    20    1
    27    12    15    1
@<TRIPOS>MOLECULE
*****
 25 27 0 0 0
SMALL
GASTEIGER

@<TRIPOS>ATOM
      1 C          64.5469   90.3494   14.5542 C.ar    1  UNL1        0.0152
      2 C          63.7781   90.7441   15.7802 C.ar    1  UNL1        0.0043
      3 C          63.1569   89.6898   16.6477 C.ar    1  UNL1        0.0369
      4 C          63.3044   88.2408   16.2891 C.ar    1  UNL1        0.1386
      5 C          64.0731   87.8460   15.0631 C.ar    1  UNL1        0.0369
      6 C          64.6944   88.9004   14.1956 C.ar    1  UNL1        0.0043
      7 C          63.3744   90.9584   11.8608 C.3     1  UNL1        0.0069
      8 C          64.5819   91.7082   12.3400 C.3     1  UNL1        0.0509
      9 C          65.2032   92.7625   11.4727 C.3     1  UNL1        0.0927
     10 C          66.4107   93.5123   11.9519 C.2     1  UNL1        0.2415
     11 O          67.0320   94.5667   11.0844 O.2     1  UNL1       -0.2734
     12 N          66.9970   93.2078   13.2986 N.am    1  UNL1       -0.2062
     13 N          66.3757   92.1535   14.1660 N.2     1  UNL1       -0.1836
     14 C          65.1682   91.4037   13.6867 C.2     1  UNL1        0.0763
     15 H          67.7895   93.6999   13.6131 H       1  UNL1        0.1772
     16 O          62.6831   87.1865   17.1566 O.3     1  UNL1       -0.4754
     17 C          63.0230   85.7415   16.9408 C.3     1  UNL1        0.2068
     18 C          62.2021   84.9104   16.0000 C.3     1  UNL1        0.0646
     19 C          62.6970   83.5638   15.5620 C.3     1  UNL1        0.0759
     20 N          62.8887   83.2733   14.1029 N.3     1  UNL1       -0.2738
     21 C          63.6999   84.0893   13.1406 C.3     1  UNL1        0.0721
     22 C          63.6153   83.4361   11.7929 C.3     1  UNL1        0.0187
     23 C          62.7518   82.2164   11.9223 C.3     1  UNL1        0.0174
     24 C          62.3027   82.1158   13.3500 C.3     1  UNL1        0.0576
     25 C          61.4222   81.0456   13.9240 C.3     1  UNL1        0.0173
@<TRIPOS>BOND
     1     7     8    1
     2     8     9    1
     3     9    10    1
     4    10    11    2
     5    10    12   am
     6    12    13    1
     7    13    14    2
     8    14     1    1
     9     1     2   ar
    10     2     3   ar
    11     3     4   ar
    12     4    16    1
    13    16    17    1
    14    17    18    1
    15    18    19    1
    16    19    20    1
    17    20    21    1
    18    21    22    1
    19    22    23    1
    20    23    24    1
    21    24    25    1
    22     4     5   ar
    23     5     6   ar
    24    14     8    1
    25     6     1   ar
    26    24    20    1
    27    12    15    1
@<TRIPOS>MOLECULE
*****
 25 27 0 0 0
SMALL
GASTEIGER

@<TRIPOS>ATOM
      1 C          65.0242   90.7751   13.6031 C.ar    1  UNL1        0.0152
      2 C          64.2609   91.3074   12.4267 C.ar    1  UNL1        0.0043
      3 C          63.1860   90.4760   11.7917 C.ar    1  UNL1        0.0369
      4 C          62.8744   89.1121   12.3330 C.ar    1  UNL1        0.1386
      5 C          63.6378   88.5798   13.5094 C.ar    1  UNL1        0.0369
      6 C          64.7128   89.4113   14.1444 C.ar    1  UNL1        0.0043
      7 C          64.5877   91.9708   16.3197 C.3     1  UNL1        0.0069
      8 C          65.8809   92.2044   15.5964 C.3     1  UNL1        0.0509
      9 C          66.9558   93.0358   16.2314 C.3     1  UNL1        0.0927
     10 C          68.2490   93.2695   15.5081 C.2     1  UNL1        0.2415
     11 O          69.3239   94.1010   16.1431 O.2     1  UNL1       -0.2734
     12 N          68.4672   92.6716   14.1498 N.am    1  UNL1       -0.2062
     13 N          67.3923   91.8402   13.5148 N.2     1  UNL1       -0.1836
     14 C          66.0992   91.6066   14.2381 C.2     1  UNL1        0.0763
     15 H          69.3160   92.8250   13.6751 H       1  UNL1        0.1772
     16 O          61.7996   88.2807   11.6979 O.3     1  UNL1       -0.4754
     17 C          62.1623   87.0405   10.9361 C.3     1  UNL1        0.2068
     18 C          61.9143   85.6900   11.5399 C.3     1  UNL1        0.0646
     19 C          63.0128   84.9862   12.2801 C.3     1  UNL1        0.0759
     20 N          62.8463   83.5506   12.6820 N.3     1  UNL1       -0.2738
     21 C          62.2655   83.0584   13.9744 C.3     1  UNL1        0.0721
     22 C          62.2916   81.5588   13.9530 C.3     1  UNL1        0.0187
     23 C          62.8887   81.1241   12.6474 C.3     1  UNL1        0.0174
     24 C          63.2314   82.3551   11.8618 C.3     1  UNL1        0.0576
     25 C          63.8507   82.3854   10.4959 C.3     1  UNL1        0.0173
@<TRIPOS>BOND
     1     7     8    1
     2     8     9    1
     3     9    10    1
     4    10    11    2
     5    10    12   am
     6    12    13    1
     7    13    14    2
     8    14     1    1
     9     1     2   ar
    10     2     3   ar
    11     3     4   ar
    12     4    16    1
    13    16    17    1
    14    17    18    1
    15    18    19    1
    16    19    20    1
    17    20    21    1
    18    21    22    1
    19    22    23    1
    20    23    24    1
    21    24    25    1
    22     4     5   ar
    23     5     6   ar
    24    14     8    1
    25     6     1   ar
    26    24    20    1
    27    12    15    1
@<TRIPOS>MOLECULE
*****
 25 27 0 0 0
SMALL
GASTEIGER

@<TRIPOS>ATOM
      1 C          61.7996   85.9135    9.8981 C.ar    1  UNL1        0.0152
      2 C          62.8331   85.0461    9.2427 C.ar    1  UNL1        0.0043
      3 C          63.6848   84.1345   10.0755 C.ar    1  UNL1        0.0369
      4 C          63.5030   84.0902   11.5638 C.ar    1  UNL1        0.1386
      5 C          62.4695   84.9576   12.2193 C.ar    1  UNL1        0.0369
      6 C          61.6178   85.8692   11.3864 C.ar    1  UNL1        0.0043
      7 C          62.0401   88.8879   10.2062 C.3     1  UNL1        0.0069
      8 C          61.0682   88.3123    9.2192 C.3     1  UNL1        0.0509
      9 C          60.2166   89.2238    8.3864 C.3     1  UNL1        0.0927
     10 C          59.2446   88.6482    7.3995 C.2     1  UNL1        0.2415
     11 O          58.3929   89.5598    6.5666 O.2     1  UNL1       -0.2734
     12 N          59.1244   87.1610    7.2454 N.am    1  UNL1       -0.2062
     13 N          59.9760   86.2495    8.0783 N.2     1  UNL1       -0.1836
     14 C          60.9479   86.8251    9.0652 C.2     1  UNL1        0.0763
     15 H          58.4864   86.7832    6.5977 H       1  UNL1        0.1772
     16 O          64.3546   83.1786   12.3966 O.3     1  UNL1       -0.4754
     17 C          64.3730   83.3254   13.8893 C.3     1  UNL1        0.2068
     18 C          64.8423   84.6072   14.5112 C.3     1  UNL1        0.0646
     19 C          64.0679   85.2209   15.6398 C.3     1  UNL1        0.0759
     20 N          63.8877   86.7087   15.7039 N.3     1  UNL1       -0.2738
     21 C          64.3428   87.6973   14.6717 C.3     1  UNL1        0.0721
     22 C          63.9571   89.0686   15.1414 C.3     1  UNL1        0.0187
     23 C          63.2636   88.9275   16.4641 C.3     1  UNL1        0.0174
     24 C          63.2207   87.4690   16.8117 C.3     1  UNL1        0.0576
     25 C          62.6169   86.8750   18.0497 C.3     1  UNL1        0.0173
@<TRIPOS>BOND
     1     7     8    1
     2     8     9    1
     3     9    10    1
     4    10    11    2
     5    10    12   am
     6    12    13    1
     7    13    14    2
     8    14     1    1
     9     1     2   ar
    10     2     3   ar
    11     3     4   ar
    12     4    16    1
    13    16    17    1
    14    17    18    1
    15    18    19    1
    16    19    20    1
    17    20    21    1
    18    21    22    1
    19    22    23    1
    20    23    24    1
    21    24    25    1
    22     4     5   ar
    23     5     6   ar
    24    14     8    1
    25     6     1   ar
    26    24    20    1
    27    12    15    1
@<TRIPOS>MOLECULE
*****
 25 27 0 0 0
SMALL
GASTEIGER

@<TRIPOS>ATOM
      1 C          62.7334   85.5601   12.4040 C.ar    1  UNL1        0.0152
      2 C          61.8495   85.8815   11.2355 C.ar    1  UNL1        0.0043
      3 C          61.7422   87.2941   10.7425 C.ar    1  UNL1        0.0369
      4 C          62.5188   88.3853   11.4180 C.ar    1  UNL1        0.1386
      5 C          63.4027   88.0638   12.5865 C.ar    1  UNL1        0.0369
      6 C          63.5100   86.6512   13.0795 C.ar    1  UNL1        0.0043
      7 C          63.9270   83.4437   10.6443 C.3     1  UNL1        0.0069
      8 C          63.4374   83.0893   12.0172 C.3     1  UNL1        0.0509
      9 C          63.5447   81.6767   12.5102 C.3     1  UNL1        0.0927
     10 C          63.0551   81.3223   13.8831 C.2     1  UNL1        0.2415
     11 O          63.1624   79.9097   14.3761 O.2     1  UNL1       -0.2734
     12 N          62.4583   82.3804   14.7629 N.am    1  UNL1       -0.2062
     13 N          62.3511   83.7930   14.2699 N.2     1  UNL1       -0.1836
     14 C          62.8406   84.1474   12.8970 C.2     1  UNL1        0.0763
     15 H          62.1370   82.1478   15.6639 H       1  UNL1        0.1772
     16 O          62.4115   89.7979   10.9249 O.3     1  UNL1       -0.4754
     17 C          63.2305   90.8797   11.5644 C.3     1  UNL1        0.2068
     18 C          64.1753   91.6958   10.7331 C.3     1  UNL1        0.0646
     19 C          65.3234   92.4084   11.3842 C.3     1  UNL1        0.0759
     20 N          66.4428   92.9502   10.5453 N.3     1  UNL1       -0.2738
     21 C          67.6132   92.1690   10.0259 C.3     1  UNL1        0.0721
     22 C          68.4819   93.1043    9.2382 C.3     1  UNL1        0.0187
     23 C          67.8483   94.4636    9.2706 C.3     1  UNL1        0.0174
     24 C          66.5880   94.3683   10.0785 C.3     1  UNL1        0.0576
     25 C          65.6395   95.4936   10.3686 C.3     1  UNL1        0.0173
@<TRIPOS>BOND
     1     7     8    1
     2     8     9    1
     3     9    10    1
     4    10    11    2
     5    10    12   am
     6    12    13    1
     7    13    14    2
     8    14     1    1
     9     1     2   ar
    10     2     3   ar
    11     3     4   ar
    12     4    16    1
    13    16    17    1
    14    17    18    1
    15    18    19    1
    16    19    20    1
    17    20    21    1
    18    21    22    1
    19    22    23    1
    20    23    24    1
    21    24    25    1
    22     4     5   ar
    23     5     6   ar
    24    14     8    1
    25     6     1   ar
    26    24    20    1
    27    12    15    1
@<TRIPOS>MOLECULE
*****
 25 27 0 0 0
SMALL
GASTEIGER

@<TRIPOS>ATOM
      1 C          64.0933   91.0831   12.3613 C.ar    1  UNL1        0.0152
      2 C          63.8302   91.6503   10.9978 C.ar    1  UNL1        0.0043
      3 C          62.8892   90.9499   10.0630 C.ar    1  UNL1        0.0369
      4 C          62.2113   89.6823   10.4916 C.ar    1  UNL1        0.1386
      5 C          62.4744   89.1152   11.8551 C.ar    1  UNL1        0.0369
      6 C          63.4154   89.8156   12.7900 C.ar    1  UNL1        0.0043
      7 C          66.6014   92.3418   11.3005 C.3     1  UNL1        0.0069
      8 C          66.2884   92.4129   12.7657 C.3     1  UNL1        0.0509
      9 C          67.2294   93.1133   13.7006 C.3     1  UNL1        0.0927
     10 C          66.9163   93.1844   15.1658 C.2     1  UNL1        0.2415
     11 O          67.8574   93.8848   16.1007 O.2     1  UNL1       -0.2734
     12 N          65.6623   92.5551   15.6962 N.am    1  UNL1       -0.2062
     13 N          64.7214   91.8547   14.7614 N.2     1  UNL1       -0.1836
     14 C          65.0344   91.7836   13.2962 C.2     1  UNL1        0.0763
     15 H          65.4569   92.6017   16.6579 H       1  UNL1        0.1772
     16 O          61.2703   88.9819    9.5568 O.3     1  UNL1       -0.4754
     17 C          60.7305   87.6280    9.9111 C.3     1  UNL1        0.2068
     18 C          61.6263   86.4260    9.8576 C.3     1  UNL1        0.0646
     19 C          61.8767   85.6215   11.0986 C.3     1  UNL1        0.0759
     20 N          62.8205   84.4563   11.0593 N.3     1  UNL1       -0.2738
     21 C          63.5523   83.9548    9.8498 C.3     1  UNL1        0.0721
     22 C          64.3824   82.7766   10.2657 C.3     1  UNL1        0.0187
     23 C          64.1636   82.5500   11.7323 C.3     1  UNL1        0.0174
     24 C          63.1984   83.5881   12.2228 C.3     1  UNL1        0.0576
     25 C          62.6986   83.7327   13.6297 C.3     1  UNL1        0.0173
@<TRIPOS>BOND
     1     7     8    1
     2     8     9    1
     3     9    10    1
     4    10    11    2
     5    10    12   am
     6    12    13    1
     7    13    14    2
     8    14     1    1
     9     1     2   ar
    10     2     3   ar
    11     3     4   ar
    12     4    16    1
    13    16    17    1
    14    17    18    1
    15    18    19    1
    16    19    20    1
    17    20    21    1
    18    21    22    1
    19    22    23    1
    20    23    24    1
    21    24    25    1
    22     4     5   ar
    23     5     6   ar
    24    14     8    1
    25     6     1   ar
    26    24    20    1
    27    12    15    1
@<TRIPOS>MOLECULE
*****
 25 27 0 0 0
SMALL
GASTEIGER

@<TRIPOS>ATOM
      1 C          63.5008   86.1326   13.2884 C.ar    1  UNL1        0.0152
      2 C          62.9572   87.0661   12.2477 C.ar    1  UNL1        0.0043
      3 C          63.1643   88.5453   12.3853 C.ar    1  UNL1        0.0369
      4 C          63.9152   89.0911   13.5637 C.ar    1  UNL1        0.1386
      5 C          64.4588   88.1576   14.6044 C.ar    1  UNL1        0.0369
      6 C          64.2516   86.6783   14.4667 C.ar    1  UNL1        0.0043
      7 C          62.3169   84.5662   15.5566 C.3     1  UNL1        0.0069
      8 C          62.7017   83.8702   14.2848 C.3     1  UNL1        0.0509
      9 C          62.4945   82.3910   14.1471 C.3     1  UNL1        0.0927
     10 C          62.8793   81.6949   12.8753 C.2     1  UNL1        0.2415
     11 O          62.6721   80.2156   12.7377 O.2     1  UNL1       -0.2734
     12 N          63.4713   82.4781   11.7412 N.am    1  UNL1       -0.2062
     13 N          63.6784   83.9573   11.8790 N.2     1  UNL1       -0.1836
     14 C          63.2936   84.6533   13.1508 C.2     1  UNL1        0.0763
     15 H          63.7238   82.0212   10.9065 H       1  UNL1        0.1772
     16 O          64.1223   90.5703   13.7013 O.3     1  UNL1       -0.4754
     17 C          64.4600   91.3958   12.4952 C.3     1  UNL1        0.2068
     18 C          65.5160   92.4572   12.5846 C.3     1  UNL1        0.0646
     19 C          66.6730   92.4463   11.6300 C.3     1  UNL1        0.0759
     20 N          66.9387   93.6390   10.7599 N.3     1  UNL1       -0.2738
     21 C          66.4046   95.0240   10.9752 C.3     1  UNL1        0.0721
     22 C          66.9210   95.8970    9.8701 C.3     1  UNL1        0.0187
     23 C          67.7743   95.0514    8.9717 C.3     1  UNL1        0.0174
     24 C          67.7852   93.6559    9.5217 C.3     1  UNL1        0.0576
     25 C          68.5147   92.4832    8.9362 C.3     1  UNL1        0.0173
@<TRIPOS>BOND
     1     7     8    1
     2     8     9    1
     3     9    10    1
     4    10    11    2
     5    10    12   am
     6    12    13    1
     7    13    14    2
     8    14     1    1
     9     1     2   ar
    10     2     3   ar
    11     3     4   ar
    12     4    16    1
    13    16    17    1
    14    17    18    1
    15    18    19    1
    16    19    20    1
    17    20    21    1
    18    21    22    1
    19    22    23    1
    20    23    24    1
    21    24    25    1
    22     4     5   ar
    23     5     6   ar
    24    14     8    1
    25     6     1   ar
    26    24    20    1
    27    12    15    1
@<TRIPOS>MOLECULE
*****
 25 27 0 0 0
SMALL
GASTEIGER

@<TRIPOS>ATOM
      1 C          62.7078   89.1676   11.5639 C.ar    1  UNL1        0.0152
      2 C          63.1162   90.6045   11.4278 C.ar    1  UNL1        0.0043
      3 C          64.0362   91.2217   12.4390 C.ar    1  UNL1        0.0369
      4 C          64.5478   90.4020   13.5864 C.ar    1  UNL1        0.1386
      5 C          64.1394   88.9651   13.7225 C.ar    1  UNL1        0.0369
      6 C          63.2193   88.3479   12.7112 C.ar    1  UNL1        0.0043
      7 C          62.4509   86.1835   11.3938 C.3     1  UNL1        0.0069
      8 C          61.6593   87.0584   10.4676 C.3     1  UNL1        0.0509
      9 C          60.7393   86.4413    9.4563 C.3     1  UNL1        0.0927
     10 C          59.9477   87.3162    8.5301 C.2     1  UNL1        0.2415
     11 O          59.0277   86.6990    7.5188 O.2     1  UNL1       -0.2734
     12 N          60.0761   88.8082    8.6151 N.am    1  UNL1       -0.2062
     13 N          60.9961   89.4253    9.6264 N.2     1  UNL1       -0.1836
     14 C          61.7877   88.5504   10.5526 C.2     1  UNL1        0.0763
     15 H          59.5566   89.3825    8.0072 H       1  UNL1        0.1772
     16 O          65.4678   91.0192   14.5976 O.3     1  UNL1       -0.4754
     17 C          65.7541   92.4909   14.5514 C.3     1  UNL1        0.2068
     18 C          66.7525   93.0303   13.5705 C.3     1  UNL1        0.0646
     19 C          66.3004   93.9273   12.4566 C.3     1  UNL1        0.0759
     20 N          66.9428   93.8268   11.1048 N.3     1  UNL1       -0.2738
     21 C          67.5029   92.5808   10.4853 C.3     1  UNL1        0.0721
     22 C          68.0443   92.9385    9.1329 C.3     1  UNL1        0.0187
     23 C          67.8187   94.4057    8.9166 C.3     1  UNL1        0.0174
     24 C          67.1380   94.9546   10.1353 C.3     1  UNL1        0.0576
     25 C          66.7249   96.3810   10.3473 C.3     1  UNL1        0.0173
@<TRIPOS>BOND
     1     7     8    1
     2     8     9    1
     3     9    10    1
     4    10    11    2
     5    10    12   am
     6    12    13    1
     7    13    14    2
     8    14     1    1
     9     1     2   ar
    10     2     3   ar
    11     3     4   ar
    12     4    16    1
    13    16    17    1
    14    17    18    1
    15    18    19    1
    16    19    20    1
    17    20    21    1
    18    21    22    1
    19    22    23    1
    20    23    24    1
    21    24    25    1
    22     4     5   ar
    23     5     6   ar
    24    14     8    1
    25     6     1   ar
    26    24    20    1
    27    12    15    1
@<TRIPOS>MOLECULE
*****
 25 27 0 0 0
SMALL
GASTEIGER

@<TRIPOS>ATOM
      1 C          63.4960   85.0119   13.8561 C.ar    1  UNL1        0.0152
      2 C          64.2583   85.4706   15.0638 C.ar    1  UNL1        0.0043
      3 C          64.6296   86.9164   15.2118 C.ar    1  UNL1        0.0369
      4 C          64.2385   87.9035   14.1522 C.ar    1  UNL1        0.1386
      5 C          63.4762   87.4448   12.9445 C.ar    1  UNL1        0.0369
      6 C          63.1049   85.9989   12.7965 C.ar    1  UNL1        0.0043
      7 C          64.3602   83.4827   11.4241 C.3     1  UNL1        0.0069
      8 C          63.5569   82.8015   12.4921 C.3     1  UNL1        0.0509
      9 C          63.1857   81.3557   12.3441 C.3     1  UNL1        0.0927
     10 C          62.3823   80.6746   13.4121 C.2     1  UNL1        0.2415
     11 O          62.0111   79.2287   13.2641 O.2     1  UNL1       -0.2734
     12 N          61.9502   81.4391   14.6281 N.am    1  UNL1       -0.2062
     13 N          62.3214   82.8849   14.7761 N.2     1  UNL1       -0.1836
     14 C          63.1248   83.5661   13.7081 C.2     1  UNL1        0.0763
     15 H          61.4230   80.9921   15.3291 H       1  UNL1        0.1772
     16 O          64.6097   89.3492   14.3002 O.3     1  UNL1       -0.4754
     17 C          63.7939   90.4068   13.6175 C.3     1  UNL1        0.2068
     18 C          64.3813   91.1900   12.4811 C.3     1  UNL1        0.0646
     19 C          65.2545   92.3772   12.7608 C.3     1  UNL1        0.0759
     20 N          66.2141   92.3475   13.9133 N.3     1  UNL1       -0.2738
     21 C          65.8800   92.6377   15.3465 C.3     1  UNL1        0.0721
     22 C          67.1357   92.4920   16.1539 C.3     1  UNL1        0.0187
     23 C          68.2460   92.1116   15.2197 C.3     1  UNL1        0.0174
     24 C          67.6764   92.0224   13.8349 C.3     1  UNL1        0.0576
     25 C          68.4357   91.6699   12.5902 C.3     1  UNL1        0.0173
@<TRIPOS>BOND
     1     7     8    1
     2     8     9    1
     3     9    10    1
     4    10    11    2
     5    10    12   am
     6    12    13    1
     7    13    14    2
     8    14     1    1
     9     1     2   ar
    10     2     3   ar
    11     3     4   ar
    12     4    16    1
    13    16    17    1
    14    17    18    1
    15    18    19    1
    16    19    20    1
    17    20    21    1
    18    21    22    1
    19    22    23    1
    20    23    24    1
    21    24    25    1
    22     4     5   ar
    23     5     6   ar
    24    14     8    1
    25     6     1   ar
    26    24    20    1
    27    12    15    1
