@<TRIPOS>MOLECULE
*****
 31 33 0 0 0
SMALL
GASTEIGER

@<TRIPOS>ATOM
      1 C          63.5396   86.6275   15.8125 C.ar    1  UNL1        0.0271
      2 C          62.9355   87.2508   17.0358 C.ar    1  UNL1        0.0045
      3 C          63.1198   88.7362   16.9383 C.ar    1  UNL1        0.0113
      4 C          63.8379   89.0310   15.6547 C.ar    1  UNL1        0.0829
      5 S          64.0973   87.7276   14.9589 S.2     1  UNL1       -0.0851
      6 C          64.2280   90.3903   15.1547 C.2     1  UNL1        0.2569
      7 O          63.5114   91.6084   15.6573 O.2     1  UNL1       -0.2692
      8 N          65.3347   90.5314   14.1521 N.am    1  UNL1       -0.2602
      9 H          65.8050   89.7319   13.8222 H       1  UNL1        0.1571
     10 C          65.7248   91.8908   13.6521 C.ar    1  UNL1        0.1654
     11 N          65.5011   92.4180   12.2657 N.ar    1  UNL1       -0.2279
     12 C          66.0452   93.8146   12.2075 C.ar    1  UNL1        0.0730
     13 C          66.6051   94.1506   13.5578 C.ar    1  UNL1        0.0532
     14 S          66.4072   92.9617   14.4507 S.2     1  UNL1       -0.0512
     15 C          66.0316   94.7169   11.0092 C.3     1  UNL1        0.0880
     16 C          67.1695   94.6835   10.0324 C.2     1  UNL1        0.0563
     17 O          67.3569   95.8107    9.0606 O.co2   1  UNL1       -0.5488
     18 O          68.1199   93.5231   10.0274 O.co2   1  UNL1       -0.5488
     19 C          63.5791   85.1613   15.4979 C.3     1  UNL1        0.1208
     20 N          62.4010   84.5026   14.8435 N.pl3   1  UNL1       -0.3289
     21 H          61.4867   84.7503   15.1117 H       1  UNL1        0.1471
     22 C          62.7403   83.8805   12.3439 C.ar    1  UNL1       -0.0091
     23 C          62.9553   82.8445   11.2807 C.ar    1  UNL1       -0.0031
     24 C          63.0459   81.3945   11.6539 C.ar    1  UNL1       -0.0002
     25 C          62.9216   80.9805   13.0902 C.ar    1  UNL1        0.0012
     26 C          62.7067   82.0166   14.1534 C.ar    1  UNL1        0.0140
     27 C          62.6160   83.4666   13.7802 C.ar    1  UNL1        0.0408
     28 C          62.6496   85.3305   11.9707 C.3     1  UNL1        0.0276
     29 C          61.6877   85.7728   10.9081 C.3     1  UNL1        0.0047
     30 C          62.8715   85.4466    8.6185 C.3     1  UNL1        0.0000
     31 C          62.2031   86.3418    9.6195 C.3     1  UNL1        0.0003
@<TRIPOS>UNITY_ATOM_ATTR
17 1
charge -1
@<TRIPOS>BOND
     1    30    31    1
     2    31    29    1
     3    29    28    1
     4    28    22    1
     5    22    23   ar
     6    23    24   ar
     7    24    25   ar
     8    25    26   ar
     9    26    27   ar
    10    27    20    1
    11    20    19    1
    12    19     1    1
    13     1     2   ar
    14     2     3   ar
    15     3     4   ar
    16     4     6    1
    17     6     7    2
    18     6     8   am
    19     8    10    1
    20    10    11   ar
    21    11    12   ar
    22    12    15    1
    23    15    16    1
    24    16    17   ar
    25    16    18   ar
    26    12    13   ar
    27    13    14   ar
    28     4     5   ar
    29    27    22   ar
    30     5     1   ar
    31    14    10   ar
    32    20    21    1
    33     8     9    1
@<TRIPOS>MOLECULE
*****
 31 33 0 0 0
SMALL
GASTEIGER

@<TRIPOS>ATOM
      1 C          63.6901   86.1486   15.5856 C.ar    1  UNL1        0.0271
      2 C          63.1971   86.7841   16.8517 C.ar    1  UNL1        0.0045
      3 C          63.3464   88.2702   16.7131 C.ar    1  UNL1        0.0113
      4 C          63.9316   88.5532   15.3613 C.ar    1  UNL1        0.0829
      5 S          64.1440   87.2419   14.6644 S.2     1  UNL1       -0.0851
      6 C          64.2486   89.9093   14.8041 C.2     1  UNL1        0.2569
      7 O          63.1524   90.7631   14.2391 O.2     1  UNL1       -0.2692
      8 N          65.6620   90.4116   14.8121 N.am    1  UNL1       -0.2602
      9 H          66.3815   89.8513   15.1829 H       1  UNL1        0.1571
     10 C          65.9791   91.7677   14.2549 C.ar    1  UNL1        0.1654
     11 N          65.7276   92.2239   12.8483 N.ar    1  UNL1       -0.2279
     12 C          66.1964   93.6439   12.7306 C.ar    1  UNL1        0.0730
     13 C          66.7377   94.0654   14.0645 C.ar    1  UNL1        0.0532
     14 S          66.6034   92.9059   15.0066 S.2     1  UNL1       -0.0512
     15 C          66.1348   94.4933   11.4958 C.3     1  UNL1        0.0880
     16 C          67.0207   94.1816   10.3261 C.2     1  UNL1        0.0563
     17 O          67.8452   95.2669    9.6997 O.co2   1  UNL1       -0.5488
     18 O          67.0820   92.7848    9.7829 O.co2   1  UNL1       -0.5488
     19 C          63.7233   84.6779   15.2920 C.3     1  UNL1        0.1208
     20 N          62.7006   84.0725   14.3769 N.pl3   1  UNL1       -0.3289
     21 H          61.9256   83.5951   14.7520 H       1  UNL1        0.1471
     22 C          63.4832   83.0773   12.1082 C.ar    1  UNL1       -0.0091
     23 C          63.6411   83.1993   10.6216 C.ar    1  UNL1       -0.0031
     24 C          63.1745   84.4386    9.9170 C.ar    1  UNL1       -0.0002
     25 C          62.5499   85.5558   10.6990 C.ar    1  UNL1        0.0012
     26 C          62.3920   85.4338   12.1856 C.ar    1  UNL1        0.0140
     27 C          62.8586   84.1945   12.8902 C.ar    1  UNL1        0.0408
     28 C          63.9498   81.8380   12.8128 C.3     1  UNL1        0.0276
     29 C          63.1384   80.5790   12.7323 C.3     1  UNL1        0.0047
     30 C          60.9594   80.9947   14.0849 C.3     1  UNL1        0.0000
     31 C          62.2160   80.2081   13.8555 C.3     1  UNL1        0.0003
@<TRIPOS>UNITY_ATOM_ATTR
17 1
charge -1
@<TRIPOS>BOND
     1    30    31    1
     2    31    29    1
     3    29    28    1
     4    28    22    1
     5    22    23   ar
     6    23    24   ar
     7    24    25   ar
     8    25    26   ar
     9    26    27   ar
    10    27    20    1
    11    20    19    1
    12    19     1    1
    13     1     2   ar
    14     2     3   ar
    15     3     4   ar
    16     4     6    1
    17     6     7    2
    18     6     8   am
    19     8    10    1
    20    10    11   ar
    21    11    12   ar
    22    12    15    1
    23    15    16    1
    24    16    17   ar
    25    16    18   ar
    26    12    13   ar
    27    13    14   ar
    28     4     5   ar
    29    27    22   ar
    30     5     1   ar
    31    14    10   ar
    32    20    21    1
    33     8     9    1
@<TRIPOS>MOLECULE
*****
 31 33 0 0 0
SMALL
GASTEIGER

@<TRIPOS>ATOM
      1 C          61.6073   87.0552   11.0533 C.ar    1  UNL1        0.0271
      2 C          60.4369   87.8502   10.5550 C.ar    1  UNL1        0.0045
      3 C          60.8663   89.2825   10.4364 C.ar    1  UNL1        0.0113
      4 C          62.3020   89.3728   10.8614 C.ar    1  UNL1        0.0829
      5 S          62.7600   87.9962   11.2427 S.2     1  UNL1       -0.0851
      6 C          63.1337   90.6205   10.8986 C.2     1  UNL1        0.2569
      7 O          62.9747   91.6600    9.8289 O.2     1  UNL1       -0.2692
      8 N          64.1244   90.8288   12.0054 N.am    1  UNL1       -0.2602
      9 H          64.2287   90.1465   12.7075 H       1  UNL1        0.1571
     10 C          64.9561   92.0765   12.0426 C.ar    1  UNL1        0.1654
     11 N          65.1999   93.0082   10.8926 N.ar    1  UNL1       -0.2279
     12 C          66.0845   94.1192   11.3756 C.ar    1  UNL1        0.0730
     13 C          66.3874   93.8741   12.8241 C.ar    1  UNL1        0.0532
     14 S          65.6900   92.6117   13.2364 S.2     1  UNL1       -0.0512
     15 C          66.5794   95.2727   10.5542 C.3     1  UNL1        0.0880
     16 C          67.5831   95.0410    9.4639 C.2     1  UNL1        0.0563
     17 O          68.6331   93.9817    9.6238 O.co2   1  UNL1       -0.5488
     18 O          67.5370   95.8685    8.2137 O.co2   1  UNL1       -0.5488
     19 C          61.6224   85.5784   11.3161 C.3     1  UNL1        0.1208
     20 N          62.8222   84.9422   11.9529 N.pl3   1  UNL1       -0.3289
     21 H          63.6569   85.4548   12.0519 H       1  UNL1        0.1471
     22 C          62.5685   83.2414   13.9004 C.ar    1  UNL1       -0.0091
     23 C          62.4968   81.8241   14.3863 C.ar    1  UNL1       -0.0031
     24 C          62.6069   80.6903   13.4104 C.ar    1  UNL1       -0.0002
     25 C          62.7888   80.9737   11.9487 C.ar    1  UNL1        0.0012
     26 C          62.8606   82.3910   11.4629 C.ar    1  UNL1        0.0140
     27 C          62.7505   83.5248   12.4388 C.ar    1  UNL1        0.0408
     28 C          62.4584   84.3752   14.8763 C.3     1  UNL1        0.0276
     29 C          63.6563   84.7966   15.6747 C.3     1  UNL1        0.0047
     30 C          64.3650   87.0821   14.6627 C.3     1  UNL1        0.0000
     31 C          64.7021   85.6732   15.0521 C.3     1  UNL1        0.0003
@<TRIPOS>UNITY_ATOM_ATTR
17 1
charge -1
@<TRIPOS>BOND
     1    30    31    1
     2    31    29    1
     3    29    28    1
     4    28    22    1
     5    22    23   ar
     6    23    24   ar
     7    24    25   ar
     8    25    26   ar
     9    26    27   ar
    10    27    20    1
    11    20    19    1
    12    19     1    1
    13     1     2   ar
    14     2     3   ar
    15     3     4   ar
    16     4     6    1
    17     6     7    2
    18     6     8   am
    19     8    10    1
    20    10    11   ar
    21    11    12   ar
    22    12    15    1
    23    15    16    1
    24    16    17   ar
    25    16    18   ar
    26    12    13   ar
    27    13    14   ar
    28     4     5   ar
    29    27    22   ar
    30     5     1   ar
    31    14    10   ar
    32    20    21    1
    33     8     9    1
@<TRIPOS>MOLECULE
*****
 31 33 0 0 0
SMALL
GASTEIGER

@<TRIPOS>ATOM
      1 C          62.6022   90.1805   10.5646 C.ar    1  UNL1        0.0271
      2 C          61.5682   89.6381    9.6231 C.ar    1  UNL1        0.0045
      3 C          61.3542   88.1907    9.9534 C.ar    1  UNL1        0.0113
      4 C          62.2561   87.8385   11.0992 C.ar    1  UNL1        0.0829
      5 S          63.0274   89.0684   11.4770 S.2     1  UNL1       -0.0851
      6 C          62.3671   86.4928   11.7525 C.2     1  UNL1        0.2569
      7 O          61.5584   85.3396   11.2366 O.2     1  UNL1       -0.2692
      8 N          63.2869   86.3003   12.9217 N.am    1  UNL1       -0.2602
      9 H          63.8177   87.0572   13.2603 H       1  UNL1        0.1571
     10 C          63.3979   84.9547   13.5750 C.ar    1  UNL1        0.1654
     11 N          63.4655   83.6339   12.8673 N.ar    1  UNL1       -0.2279
     12 C          63.5702   82.5564   13.9056 C.ar    1  UNL1        0.0730
     13 C          63.5674   83.2113   15.2551 C.ar    1  UNL1        0.0532
     14 S          63.4609   84.6935   15.0508 S.2     1  UNL1       -0.0512
     15 C          63.6617   81.0827   13.6409 C.3     1  UNL1        0.0880
     16 C          62.4839   80.3484   13.0720 C.2     1  UNL1        0.0563
     17 O          61.1725   80.3556   13.8002 O.co2   1  UNL1       -0.5488
     18 O          62.6175   79.6069   11.7749 O.co2   1  UNL1       -0.5488
     19 C          63.1202   91.5881   10.5896 C.3     1  UNL1        0.1208
     20 N          64.5975   91.8428   10.6394 N.pl3   1  UNL1       -0.3289
     21 H          65.1535   91.6727    9.8449 H       1  UNL1        0.1471
     22 C          65.8919   93.7017   11.9118 C.ar    1  UNL1       -0.0091
     23 C          66.5222   94.2156   13.1722 C.ar    1  UNL1       -0.0031
     24 C          66.4887   93.3845   14.4204 C.ar    1  UNL1       -0.0002
     25 C          65.8248   92.0396   14.4084 C.ar    1  UNL1        0.0012
     26 C          65.1944   91.5257   13.1480 C.ar    1  UNL1        0.0140
     27 C          65.2280   92.3568   11.8998 C.ar    1  UNL1        0.0408
     28 C          65.9254   94.5328   10.6636 C.3     1  UNL1        0.0276
     29 C          67.2351   94.8300    9.9954 C.3     1  UNL1        0.0047
     30 C          68.2139   92.5133    9.3435 C.3     1  UNL1        0.0000
     31 C          67.7756   93.8943    8.9551 C.3     1  UNL1        0.0003
@<TRIPOS>UNITY_ATOM_ATTR
17 1
charge -1
@<TRIPOS>BOND
     1    30    31    1
     2    31    29    1
     3    29    28    1
     4    28    22    1
     5    22    23   ar
     6    23    24   ar
     7    24    25   ar
     8    25    26   ar
     9    26    27   ar
    10    27    20    1
    11    20    19    1
    12    19     1    1
    13     1     2   ar
    14     2     3   ar
    15     3     4   ar
    16     4     6    1
    17     6     7    2
    18     6     8   am
    19     8    10    1
    20    10    11   ar
    21    11    12   ar
    22    12    15    1
    23    15    16    1
    24    16    17   ar
    25    16    18   ar
    26    12    13   ar
    27    13    14   ar
    28     4     5   ar
    29    27    22   ar
    30     5     1   ar
    31    14    10   ar
    32    20    21    1
    33     8     9    1
@<TRIPOS>MOLECULE
*****
 31 33 0 0 0
SMALL
GASTEIGER

@<TRIPOS>ATOM
      1 C          61.5814   86.8636   11.0183 C.ar    1  UNL1        0.0271
      2 C          60.4213   87.7860   10.7873 C.ar    1  UNL1        0.0045
      3 C          60.8537   89.1750   11.1528 C.ar    1  UNL1        0.0113
      4 C          62.2810   89.1112   11.6097 C.ar    1  UNL1        0.0829
      5 S          62.7308   87.6825   11.5265 S.2     1  UNL1       -0.0851
      6 C          63.1126   90.2720   12.0690 C.2     1  UNL1        0.2569
      7 O          63.0214   90.7443   13.4898 O.2     1  UNL1       -0.2692
      8 N          64.0352   90.9606   11.1075 N.am    1  UNL1       -0.2602
      9 H          64.0951   90.6506   10.1750 H       1  UNL1        0.1571
     10 C          64.8668   92.1214   11.5668 C.ar    1  UNL1        0.1654
     11 N          65.3663   92.3506   12.9624 N.ar    1  UNL1       -0.2279
     12 C          66.1531   93.6278   12.9693 C.ar    1  UNL1        0.0730
     13 C          66.1398   94.1878   11.5779 C.ar    1  UNL1        0.0532
     14 S          65.3448   93.2569   10.7110 S.2     1  UNL1       -0.0512
     15 C          66.8336   94.2377   14.1588 C.3     1  UNL1        0.0880
     16 C          67.5764   93.3653   15.1269 C.2     1  UNL1        0.0563
     17 O          66.8710   92.8071   16.3272 O.co2   1  UNL1       -0.5488
     18 O          69.0247   93.0513   14.8947 O.co2   1  UNL1       -0.5488
     19 C          61.5906   85.3822   10.7825 C.3     1  UNL1        0.1208
     20 N          62.8823   84.6218   10.8388 N.pl3   1  UNL1       -0.3289
     21 H          63.6370   84.8904   10.2665 H       1  UNL1        0.1471
     22 C          63.5737   83.6530   13.1482 C.ar    1  UNL1       -0.0091
     23 C          63.7156   82.4832   14.0764 C.ar    1  UNL1       -0.0031
     24 C          63.3079   81.1126   13.6235 C.ar    1  UNL1       -0.0002
     25 C          62.7583   80.9117   12.2423 C.ar    1  UNL1        0.0012
     26 C          62.6164   82.0814   11.3142 C.ar    1  UNL1        0.0140
     27 C          63.0242   83.4521   11.7671 C.ar    1  UNL1        0.0408
     28 C          63.9815   85.0236   13.6012 C.3     1  UNL1        0.0276
     29 C          64.2690   85.2798   15.0508 C.3     1  UNL1        0.0047
     30 C          64.4300   87.8619   14.8128 C.3     1  UNL1        0.0000
     31 C          64.0712   86.6519   15.6236 C.3     1  UNL1        0.0003
@<TRIPOS>UNITY_ATOM_ATTR
17 1
charge -1
@<TRIPOS>BOND
     1    30    31    1
     2    31    29    1
     3    29    28    1
     4    28    22    1
     5    22    23   ar
     6    23    24   ar
     7    24    25   ar
     8    25    26   ar
     9    26    27   ar
    10    27    20    1
    11    20    19    1
    12    19     1    1
    13     1     2   ar
    14     2     3   ar
    15     3     4   ar
    16     4     6    1
    17     6     7    2
    18     6     8   am
    19     8    10    1
    20    10    11   ar
    21    11    12   ar
    22    12    15    1
    23    15    16    1
    24    16    17   ar
    25    16    18   ar
    26    12    13   ar
    27    13    14   ar
    28     4     5   ar
    29    27    22   ar
    30     5     1   ar
    31    14    10   ar
    32    20    21    1
    33     8     9    1
@<TRIPOS>MOLECULE
*****
 31 33 0 0 0
SMALL
GASTEIGER

@<TRIPOS>ATOM
      1 C          65.6274   92.3663   14.3720 C.ar    1  UNL1        0.0271
      2 C          64.9461   92.2210   15.7004 C.ar    1  UNL1        0.0045
      3 C          64.2876   90.8738   15.7386 C.ar    1  UNL1        0.0113
      4 C          64.5619   90.1865   14.4339 C.ar    1  UNL1        0.0829
      5 S          65.3901   91.1089   13.5892 S.2     1  UNL1       -0.0851
      6 C          64.0909   88.8172   14.0425 C.2     1  UNL1        0.2569
      7 O          63.3960   88.6099   12.7294 O.2     1  UNL1       -0.2692
      8 N          64.3148   87.6552   14.9642 N.am    1  UNL1       -0.2602
      9 H          64.7709   87.7912   15.8260 H       1  UNL1        0.1571
     10 C          63.8438   86.2859   14.5728 C.ar    1  UNL1        0.1654
     11 N          63.5753   85.8119   13.1752 N.ar    1  UNL1       -0.2279
     12 C          63.1241   84.3832   13.2489 C.ar    1  UNL1        0.0730
     13 C          63.1139   83.9742   14.6920 C.ar    1  UNL1        0.0532
     14 S          63.5587   85.1501   15.5102 S.2     1  UNL1       -0.0512
     15 C          62.7491   83.5158   12.0840 C.3     1  UNL1        0.0880
     16 C          63.6165   83.4870   10.8605 C.2     1  UNL1        0.0563
     17 O          64.7788   82.5415   10.7873 O.co2   1  UNL1       -0.5488
     18 O          63.3216   84.4035    9.7103 O.co2   1  UNL1       -0.5488
     19 C          66.4090   93.5595   13.9078 C.3     1  UNL1        0.1208
     20 N          66.0565   94.2295   12.6129 N.pl3   1  UNL1       -0.3289
     21 H          65.3373   94.9013   12.5861 H       1  UNL1        0.1471
     22 C          67.1691   94.9491   10.3781 C.ar    1  UNL1       -0.0091
     23 C          67.9122   94.5955    9.1241 C.ar    1  UNL1       -0.0031
     24 C          68.2860   93.1688    8.8508 C.ar    1  UNL1       -0.0002
     25 C          67.9166   92.0956    9.8315 C.ar    1  UNL1        0.0012
     26 C          67.1735   92.4492   11.0855 C.ar    1  UNL1        0.0140
     27 C          66.7997   93.8760   11.3588 C.ar    1  UNL1        0.0408
     28 C          66.7953   96.3759   10.6514 C.3     1  UNL1        0.0276
     29 C          65.3738   96.8241   10.4834 C.3     1  UNL1        0.0047
     30 C          64.9338   96.8352    7.9228 C.3     1  UNL1        0.0000
     31 C          64.5762   96.3612    9.3003 C.3     1  UNL1        0.0003
@<TRIPOS>UNITY_ATOM_ATTR
17 1
charge -1
@<TRIPOS>BOND
     1    30    31    1
     2    31    29    1
     3    29    28    1
     4    28    22    1
     5    22    23   ar
     6    23    24   ar
     7    24    25   ar
     8    25    26   ar
     9    26    27   ar
    10    27    20    1
    11    20    19    1
    12    19     1    1
    13     1     2   ar
    14     2     3   ar
    15     3     4   ar
    16     4     6    1
    17     6     7    2
    18     6     8   am
    19     8    10    1
    20    10    11   ar
    21    11    12   ar
    22    12    15    1
    23    15    16    1
    24    16    17   ar
    25    16    18   ar
    26    12    13   ar
    27    13    14   ar
    28     4     5   ar
    29    27    22   ar
    30     5     1   ar
    31    14    10   ar
    32    20    21    1
    33     8     9    1
@<TRIPOS>MOLECULE
*****
 31 33 0 0 0
SMALL
GASTEIGER

@<TRIPOS>ATOM
      1 C          59.2621   90.2951    5.8816 C.ar    1  UNL1        0.0271
      2 C          57.9728   90.9563    5.4939 C.ar    1  UNL1        0.0045
      3 C          58.2724   91.9656    4.4254 C.ar    1  UNL1        0.0113
      4 C          59.7470   91.9281    4.1528 C.ar    1  UNL1        0.0829
      5 S          60.3587   90.8956    5.0529 S.2     1  UNL1       -0.0851
      6 C          60.4810   92.7744    3.1554 C.2     1  UNL1        0.2569
      7 O          59.8727   94.0556    2.6669 O.2     1  UNL1       -0.2692
      8 N          61.8234   92.3396    2.6464 N.am    1  UNL1       -0.2602
      9 H          62.2226   91.4987    2.9670 H       1  UNL1        0.1571
     10 C          62.5574   93.1859    1.6489 C.ar    1  UNL1        0.1654
     11 N          62.0818   93.5359    0.2700 N.ar    1  UNL1       -0.2279
     12 C          63.1264   94.3972   -0.3759 C.ar    1  UNL1        0.0730
     13 C          64.2475   94.5795    0.6038 C.ar    1  UNL1        0.0532
     14 S          63.8959   93.8309    1.8552 S.2     1  UNL1       -0.0512
     15 C          63.0612   94.9747   -1.7587 C.3     1  UNL1        0.0880
     16 C          64.2994   95.0414   -2.6028 C.2     1  UNL1        0.0563
     17 O          64.5210   94.0321   -3.6902 O.co2   1  UNL1       -0.5488
     18 O          65.3159   96.1172   -2.3595 O.co2   1  UNL1       -0.5488
     19 C          59.4262   89.2217    6.9165 C.3     1  UNL1        0.1208
     20 N          59.9436   89.5683    8.2811 N.pl3   1  UNL1       -0.3289
     21 H          59.8064   90.4729    8.6444 H       1  UNL1        0.1471
     22 C          61.5775   88.9623   10.2081 C.ar    1  UNL1       -0.0091
     23 C          62.3040   87.9306   11.0190 C.ar    1  UNL1       -0.0031
     24 C          62.1231   86.4731   10.7141 C.ar    1  UNL1       -0.0002
     25 C          61.2158   86.0473    9.5981 C.ar    1  UNL1        0.0012
     26 C          60.4893   87.0790    8.7872 C.ar    1  UNL1        0.0140
     27 C          60.6702   88.5365    9.0921 C.ar    1  UNL1        0.0408
     28 C          61.7584   90.4198   10.5130 C.3     1  UNL1        0.0276
     29 C          63.0373   91.1104   10.1425 C.3     1  UNL1        0.0047
     30 C          63.7992   91.0390   12.6254 C.3     1  UNL1        0.0000
     31 C          64.0341   91.4642   11.2062 C.3     1  UNL1        0.0003
@<TRIPOS>UNITY_ATOM_ATTR
17 1
charge -1
@<TRIPOS>BOND
     1    30    31    1
     2    31    29    1
     3    29    28    1
     4    28    22    1
     5    22    23   ar
     6    23    24   ar
     7    24    25   ar
     8    25    26   ar
     9    26    27   ar
    10    27    20    1
    11    20    19    1
    12    19     1    1
    13     1     2   ar
    14     2     3   ar
    15     3     4   ar
    16     4     6    1
    17     6     7    2
    18     6     8   am
    19     8    10    1
    20    10    11   ar
    21    11    12   ar
    22    12    15    1
    23    15    16    1
    24    16    17   ar
    25    16    18   ar
    26    12    13   ar
    27    13    14   ar
    28     4     5   ar
    29    27    22   ar
    30     5     1   ar
    31    14    10   ar
    32    20    21    1
    33     8     9    1
@<TRIPOS>MOLECULE
*****
 31 33 0 0 0
SMALL
GASTEIGER

@<TRIPOS>ATOM
      1 C          65.2348   91.7359   14.8911 C.ar    1  UNL1        0.0271
      2 C          64.2511   91.5894   16.0139 C.ar    1  UNL1        0.0045
      3 C          63.6697   90.2085   15.9437 C.ar    1  UNL1        0.0113
      4 C          64.2942   89.5014   14.7774 C.ar    1  UNL1        0.0829
      5 S          65.2615   90.4454   14.1269 S.2     1  UNL1       -0.0851
      6 C          64.0025   88.0969   14.3388 C.2     1  UNL1        0.2569
      7 O          63.5630   87.8271   12.9302 O.2     1  UNL1       -0.2692
      8 N          64.1504   86.9623   15.3087 N.am    1  UNL1       -0.2602
      9 H          64.4389   87.1394   16.2331 H       1  UNL1        0.1571
     10 C          63.8588   85.5579   14.8700 C.ar    1  UNL1        0.1654
     11 N          64.4558   84.8632   13.6822 N.ar    1  UNL1       -0.2279
     12 C          63.8849   83.4775   13.6202 C.ar    1  UNL1        0.0730
     13 C          62.9349   83.3157   14.7697 C.ar    1  UNL1        0.0532
     14 S          62.9187   84.6014   15.5421 S.2     1  UNL1       -0.0512
     15 C          64.2074   82.4363   12.5896 C.3     1  UNL1        0.0880
     16 C          63.6770   82.5737   11.1932 C.2     1  UNL1        0.0563
     17 O          63.4213   83.9356   10.6187 O.co2   1  UNL1       -0.5488
     18 O          63.4022   81.3493   10.3715 O.co2   1  UNL1       -0.5488
     19 C          66.0491   92.9582   14.5860 C.3     1  UNL1        0.1208
     20 N          66.7363   93.0896   13.2592 N.pl3   1  UNL1       -0.3289
     21 H          67.4630   92.4709   13.0178 H       1  UNL1        0.1471
     22 C          65.6689   93.7954   10.9980 C.ar    1  UNL1       -0.0091
     23 C          65.2488   94.8695   10.0390 C.ar    1  UNL1       -0.0031
     24 C          65.4760   96.3119   10.3820 C.ar    1  UNL1       -0.0002
     25 C          66.1233   96.6803   11.6840 C.ar    1  UNL1        0.0012
     26 C          66.5434   95.6062   12.6430 C.ar    1  UNL1        0.0140
     27 C          66.3162   94.1637   12.3001 C.ar    1  UNL1        0.0408
     28 C          65.4417   92.3529   10.6551 C.3     1  UNL1        0.0276
     29 C          64.1915   91.6613   11.1119 C.3     1  UNL1        0.0047
     30 C          62.4673   89.9291   10.2305 C.3     1  UNL1        0.0000
     31 C          63.1478   91.2606   10.1118 C.3     1  UNL1        0.0003
@<TRIPOS>UNITY_ATOM_ATTR
17 1
charge -1
@<TRIPOS>BOND
     1    30    31    1
     2    31    29    1
     3    29    28    1
     4    28    22    1
     5    22    23   ar
     6    23    24   ar
     7    24    25   ar
     8    25    26   ar
     9    26    27   ar
    10    27    20    1
    11    20    19    1
    12    19     1    1
    13     1     2   ar
    14     2     3   ar
    15     3     4   ar
    16     4     6    1
    17     6     7    2
    18     6     8   am
    19     8    10    1
    20    10    11   ar
    21    11    12   ar
    22    12    15    1
    23    15    16    1
    24    16    17   ar
    25    16    18   ar
    26    12    13   ar
    27    13    14   ar
    28     4     5   ar
    29    27    22   ar
    30     5     1   ar
    31    14    10   ar
    32    20    21    1
    33     8     9    1
@<TRIPOS>MOLECULE
*****
 31 33 0 0 0
SMALL
GASTEIGER

@<TRIPOS>ATOM
      1 C          64.2309   91.0826   12.9622 C.ar    1  UNL1        0.0271
      2 C          64.7361   90.7849   14.3428 C.ar    1  UNL1        0.0045
      3 C          64.5031   89.3288   14.6176 C.ar    1  UNL1        0.0113
      4 C          63.8538   88.7266   13.4068 C.ar    1  UNL1        0.0829
      5 S          63.6856   89.8106   12.3836 S.2     1  UNL1       -0.0851
      6 C          63.4447   87.2924   13.2472 C.2     1  UNL1        0.2569
      7 O          62.6363   86.8711   12.0559 O.2     1  UNL1       -0.2692
      8 N          63.8440   86.2793   14.2788 N.am    1  UNL1       -0.2602
      9 H          64.3745   86.5558   15.0607 H       1  UNL1        0.1571
     10 C          63.4348   84.8451   14.1192 C.ar    1  UNL1        0.1654
     11 N          63.9467   83.8926   13.0796 N.ar    1  UNL1       -0.2279
     12 C          63.2702   82.5703   13.2890 C.ar    1  UNL1        0.0730
     13 C          62.3402   82.7055   14.4581 C.ar    1  UNL1        0.0532
     14 S          62.4419   84.1113   14.9712 S.2     1  UNL1       -0.0512
     15 C          63.4858   81.3305   12.4727 C.3     1  UNL1        0.0880
     16 C          63.6618   81.4323   10.9865 C.2     1  UNL1        0.0563
     17 O          62.9084   80.5075   10.0769 O.co2   1  UNL1       -0.5488
     18 O          64.5912   82.4588   10.4099 O.co2   1  UNL1       -0.5488
     19 C          64.2649   92.4180   12.2797 C.3     1  UNL1        0.1208
     20 N          65.4995   93.2667   12.3536 N.pl3   1  UNL1       -0.3289
     21 H          65.6756   93.8108   13.1550 H       1  UNL1        0.1471
     22 C          67.6783   92.4038   11.2317 C.ar    1  UNL1       -0.0091
     23 C          68.6445   92.4237   10.0846 C.ar    1  UNL1       -0.0031
     24 C          68.3982   93.3262    8.9121 C.ar    1  UNL1       -0.0002
     25 C          67.1857   94.2089    8.8867 C.ar    1  UNL1        0.0012
     26 C          66.2195   94.1891   10.0339 C.ar    1  UNL1        0.0140
     27 C          66.4658   93.2865   11.2064 C.ar    1  UNL1        0.0408
     28 C          67.9245   91.5013   12.4042 C.3     1  UNL1        0.0276
     29 C          68.6444   92.0215   13.6130 C.3     1  UNL1        0.0047
     30 C          68.2130   93.4136   15.7638 C.3     1  UNL1        0.0000
     31 C          67.8992   92.2295   14.8980 C.3     1  UNL1        0.0003
@<TRIPOS>UNITY_ATOM_ATTR
17 1
charge -1
@<TRIPOS>BOND
     1    30    31    1
     2    31    29    1
     3    29    28    1
     4    28    22    1
     5    22    23   ar
     6    23    24   ar
     7    24    25   ar
     8    25    26   ar
     9    26    27   ar
    10    27    20    1
    11    20    19    1
    12    19     1    1
    13     1     2   ar
    14     2     3   ar
    15     3     4   ar
    16     4     6    1
    17     6     7    2
    18     6     8   am
    19     8    10    1
    20    10    11   ar
    21    11    12   ar
    22    12    15    1
    23    15    16    1
    24    16    17   ar
    25    16    18   ar
    26    12    13   ar
    27    13    14   ar
    28     4     5   ar
    29    27    22   ar
    30     5     1   ar
    31    14    10   ar
    32    20    21    1
    33     8     9    1
