@<TRIPOS>MOLECULE
*****
 47 51 0 0 0
SMALL
GASTEIGER

@<TRIPOS>ATOM
      1 C          60.7131   86.8555    9.2831 C.3     1  UNL1        0.0964
      2 C          59.8806   86.0062    8.3691 C.3     1  UNL1        0.0780
      3 N          58.8995   86.6492    7.4343 N.3     1  UNL1       -0.2970
      4 C          58.7508   88.1417    7.4137 C.3     1  UNL1        0.0689
      5 C          59.5833   88.9910    8.3278 C.3     1  UNL1        0.0220
      6 C          60.5645   88.3480    9.2625 C.3     1  UNL1        0.0337
      7 H          57.9821   86.2650    7.6605 H       1  UNL1        0.1233
      8 C          61.3969   89.1974   10.1766 C.ar    1  UNL1       -0.0217
      9 C          61.0583   89.2840   11.6352 C.ar    1  UNL1       -0.0012
     10 C          61.8908   90.1333   12.5493 C.ar    1  UNL1        0.0366
     11 C          63.0619   90.8961   12.0047 C.ar    1  UNL1        0.1387
     12 C          63.4005   90.8095   10.5460 C.ar    1  UNL1        0.0366
     13 C          62.5681   89.9601    9.6320 C.ar    1  UNL1       -0.0012
     14 O          63.8944   91.7455   12.9188 O.3     1  UNL1       -0.4714
     15 C          65.3611   91.9162   12.6551 C.3     1  UNL1        0.2525
     16 C          66.0087   93.2540   12.8571 C.3     1  UNL1        0.2525
     17 O          67.1850   93.6526   12.0159 O.3     1  UNL1       -0.4697
     18 C          66.9753   94.4519   10.7640 C.ar    1  UNL1        0.1596
     19 C          67.3533   93.8734    9.4327 C.ar    1  UNL1        0.0921
     20 CL         67.9409   92.4956    9.3533 Cl      1  UNL1       -0.0791
     21 C          67.1436   94.6727    8.1809 C.ar    1  UNL1        0.0103
     22 C          66.5559   96.0504    8.2603 C.ar    1  UNL1       -0.0200
     23 C          66.3462   96.8497    7.0084 C.3     1  UNL1        0.0311
     24 C          66.1779   96.6290    9.5917 C.ar    1  UNL1        0.0103
     25 C          66.3876   95.8297   10.8435 C.ar    1  UNL1        0.0921
     26 CL         66.0096   96.4082   12.1749 Cl      1  UNL1       -0.0791
     27 N          62.7229   85.2591    9.6859 N.am    1  UNL1       -0.2770
     28 C          61.6943   86.2124   10.2179 C.2     1  UNL1        0.2270
     29 O          61.6468   86.5226   11.6847 O.2     1  UNL1       -0.2748
     30 C          62.7704   84.9488    8.2191 C.3     1  UNL1        0.0758
     31 C          63.5367   84.8706    6.9320 C.3     1  UNL1        0.0215
     32 C          62.0863   84.4896    6.9657 C.3     1  UNL1        0.0215
     33 C          63.7041   84.6159   10.6207 C.3     1  UNL1        0.1209
     34 C          62.5403   83.6080   14.2784 C.ar    1  UNL1       -0.0027
     35 C          62.2284   82.1534   14.0860 C.ar    1  UNL1       -0.0018
     36 C          62.4085   81.5197   12.7384 C.ar    1  UNL1        0.0109
     37 C          62.9004   82.3406   11.5832 C.ar    1  UNL1        0.0553
     38 CL         63.0804   81.7069   10.2357 Cl      1  UNL1       -0.0825
     39 C          63.2122   83.7951   11.7757 C.ar    1  UNL1        0.0080
     40 C          63.0322   84.4288   13.1233 C.ar    1  UNL1       -0.0044
     41 C          62.3602   84.2417   15.6260 C.3     1  UNL1        0.1194
     42 C          62.5396   86.5594   16.7863 C.2     1  UNL1        0.4020
     43 O          61.0990   86.4668   17.1939 O.2     1  UNL1       -0.2264
     44 N          63.1702   85.4469   16.0023 N.am    1  UNL1       -0.2665
     45 H          64.1157   85.5076   15.7348 H       1  UNL1        0.1531
     46 C          63.1178   89.0718   16.4645 C.3     1  UNL1        0.2573
     47 O          63.3495   87.7645   17.1626 O.3     1  UNL1       -0.4306
@<TRIPOS>BOND
     1    46    47    1
     2    47    42    1
     3    42    43    2
     4    42    44   am
     5    44    41    1
     6    41    34    1
     7    34    35   ar
     8    35    36   ar
     9    36    37   ar
    10    37    38    1
    11    37    39   ar
    12    39    33    1
    13    33    27    1
    14    27    28   am
    15    28    29    2
    16     1    28    1
    17     1     2    1
    18     2     3    1
    19     3     4    1
    20     4     5    1
    21     5     6    1
    22     6     8    1
    23     8     9   ar
    24     9    10   ar
    25    10    11   ar
    26    11    14    1
    27    14    15    1
    28    15    16    1
    29    16    17    1
    30    17    18    1
    31    18    19   ar
    32    19    20    1
    33    19    21   ar
    34    21    22   ar
    35    22    23    1
    36    22    24   ar
    37    24    25   ar
    38    25    26    1
    39    11    12   ar
    40    12    13   ar
    41    27    30    1
    42    30    31    1
    43    31    32    1
    44    39    40   ar
    45    40    34   ar
    46     6     1    1
    47    13     8   ar
    48    32    30    1
    49    25    18   ar
    50    44    45    1
    51     3     7    1
@<TRIPOS>MOLECULE
*****
 47 51 0 0 0
SMALL
GASTEIGER

@<TRIPOS>ATOM
      1 C          63.6915   90.8563   13.5187 C.3     1  UNL1        0.0964
      2 C          64.1080   92.1381   12.8602 C.3     1  UNL1        0.0780
      3 N          65.4473   92.7390   13.1686 N.3     1  UNL1       -0.2970
      4 C          66.3701   92.0581   14.1354 C.3     1  UNL1        0.0689
      5 C          65.9536   90.7764   14.7939 C.3     1  UNL1        0.0220
      6 C          64.6143   90.1755   14.4856 C.3     1  UNL1        0.0337
      7 H          65.2727   93.6740   13.5368 H       1  UNL1        0.1233
      8 C          64.1978   88.8937   15.1441 C.ar    1  UNL1       -0.0217
      9 C          63.4165   88.9275   16.4241 C.ar    1  UNL1       -0.0012
     10 C          63.0000   87.6457   17.0826 C.ar    1  UNL1        0.0366
     11 C          63.3647   86.3302   16.4611 C.ar    1  UNL1        0.1387
     12 C          64.1460   86.2964   15.1811 C.ar    1  UNL1        0.0366
     13 C          64.5625   87.5782   14.5226 C.ar    1  UNL1       -0.0012
     14 O          62.9482   85.0485   17.1196 O.3     1  UNL1       -0.4714
     15 C          62.3720   83.9350   16.2962 C.3     1  UNL1        0.2525
     16 C          63.1099   83.4349   15.0898 C.3     1  UNL1        0.2525
     17 O          62.4974   83.5688   13.7271 O.3     1  UNL1       -0.4697
     18 C          62.6470   82.4623   12.7255 C.ar    1  UNL1        0.1596
     19 C          63.2984   82.7321   11.4016 C.ar    1  UNL1        0.0921
     20 CL         63.8001   84.1085   11.0792 Cl      1  UNL1       -0.0791
     21 C          63.4481   81.6256   10.4000 C.ar    1  UNL1        0.0103
     22 C          62.9464   80.2493   10.7223 C.ar    1  UNL1       -0.0200
     23 C          63.0961   79.1427    9.7207 C.3     1  UNL1        0.0311
     24 C          62.2950   79.9794   12.0463 C.ar    1  UNL1        0.0103
     25 C          62.1453   81.0859   13.0479 C.ar    1  UNL1        0.0921
     26 CL         61.4939   80.8161   14.3718 Cl      1  UNL1       -0.0791
     27 N          61.8806   90.1633   11.7894 N.am    1  UNL1       -0.2770
     28 C          62.3521   90.2554   13.2104 C.2     1  UNL1        0.2270
     29 O          61.4842   89.7466   14.3230 O.2     1  UNL1       -0.2748
     30 C          62.7485   90.6721   10.6767 C.3     1  UNL1        0.0758
     31 C          64.1117   90.9434   10.1129 C.3     1  UNL1        0.0215
     32 C          62.8884   91.2819    9.3135 C.3     1  UNL1        0.0215
     33 C          60.5412   89.5624   11.4810 C.3     1  UNL1        0.1209
     34 C          59.5524   88.5915    7.7622 C.ar    1  UNL1       -0.0027
     35 C          59.9681   87.1507    7.7253 C.ar    1  UNL1       -0.0018
     36 C          60.5747   86.5138    8.9404 C.ar    1  UNL1        0.0109
     37 C          60.7658   87.3177   10.1923 C.ar    1  UNL1        0.0553
     38 CL         61.3724   86.6809   11.4073 Cl      1  UNL1       -0.0825
     39 C          60.3502   88.7585   10.2291 C.ar    1  UNL1        0.0080
     40 C          59.7435   89.3954    9.0141 C.ar    1  UNL1       -0.0044
     41 C          58.9458   89.2284    6.5472 C.3     1  UNL1        0.1194
     42 C          58.6891   91.4718    5.2620 C.2     1  UNL1        0.4020
     43 O          57.2143   91.2297    5.1341 O.2     1  UNL1       -0.2264
     44 N          59.5549   90.4711    5.9685 N.am    1  UNL1       -0.2665
     45 H          60.5228   90.6300    6.0525 H       1  UNL1        0.1531
     46 C          59.7859   92.7202    3.2649 C.3     1  UNL1        0.2573
     47 O          59.2982   92.7144    4.6834 O.3     1  UNL1       -0.4306
@<TRIPOS>BOND
     1    46    47    1
     2    47    42    1
     3    42    43    2
     4    42    44   am
     5    44    41    1
     6    41    34    1
     7    34    35   ar
     8    35    36   ar
     9    36    37   ar
    10    37    38    1
    11    37    39   ar
    12    39    33    1
    13    33    27    1
    14    27    28   am
    15    28    29    2
    16     1    28    1
    17     1     2    1
    18     2     3    1
    19     3     4    1
    20     4     5    1
    21     5     6    1
    22     6     8    1
    23     8     9   ar
    24     9    10   ar
    25    10    11   ar
    26    11    14    1
    27    14    15    1
    28    15    16    1
    29    16    17    1
    30    17    18    1
    31    18    19   ar
    32    19    20    1
    33    19    21   ar
    34    21    22   ar
    35    22    23    1
    36    22    24   ar
    37    24    25   ar
    38    25    26    1
    39    11    12   ar
    40    12    13   ar
    41    27    30    1
    42    30    31    1
    43    31    32    1
    44    39    40   ar
    45    40    34   ar
    46     6     1    1
    47    13     8   ar
    48    32    30    1
    49    25    18   ar
    50    44    45    1
    51     3     7    1
@<TRIPOS>MOLECULE
*****
 47 51 0 0 0
SMALL
GASTEIGER

@<TRIPOS>ATOM
      1 C          60.8342   86.7458    9.1733 C.3     1  UNL1        0.0964
      2 C          60.1040   85.9943    8.0999 C.3     1  UNL1        0.0780
      3 N          59.1067   86.7043    7.2332 N.3     1  UNL1       -0.2970
      4 C          58.8395   88.1657    7.4399 C.3     1  UNL1        0.0689
      5 C          59.5697   88.9172    8.5132 C.3     1  UNL1        0.0220
      6 C          60.5671   88.2072    9.3799 C.3     1  UNL1        0.0337
      7 H          58.2159   86.2222    7.3538 H       1  UNL1        0.1233
      8 C          61.2973   88.9587   10.4532 C.ar    1  UNL1       -0.0217
      9 C          60.6769   89.1221   11.8091 C.ar    1  UNL1       -0.0012
     10 C          61.4071   89.8736   12.8824 C.ar    1  UNL1        0.0366
     11 C          62.7577   90.4617   12.5999 C.ar    1  UNL1        0.1387
     12 C          63.3781   90.2983   11.2441 C.ar    1  UNL1        0.0366
     13 C          62.6479   89.5468   10.1707 C.ar    1  UNL1       -0.0012
     14 O          63.4879   91.2132   13.6732 O.3     1  UNL1       -0.4714
     15 C          64.9796   91.3562   13.6065 C.3     1  UNL1        0.2525
     16 C          65.6506   92.5282   14.2593 C.3     1  UNL1        0.2525
     17 O          66.2984   93.5866   13.4165 O.3     1  UNL1       -0.4697
     18 C          66.9507   93.2161   12.1176 C.ar    1  UNL1        0.1596
     19 C          66.5253   93.8884   10.8460 C.ar    1  UNL1        0.0921
     20 CL         65.4476   94.9313   10.8733 Cl      1  UNL1       -0.0791
     21 C          67.1776   93.5179    9.5471 C.ar    1  UNL1        0.0103
     22 C          68.2554   92.4750    9.5198 C.ar    1  UNL1       -0.0200
     23 C          68.9077   92.1044    8.2209 C.3     1  UNL1        0.0311
     24 C          68.6808   91.8025   10.7914 C.ar    1  UNL1        0.0103
     25 C          68.0285   92.1731   12.0903 C.ar    1  UNL1        0.0921
     26 CL         68.4539   91.5007   13.3619 Cl      1  UNL1       -0.0791
     27 N          62.8033   85.0702    9.4289 N.am    1  UNL1       -0.2770
     28 C          61.8316   86.0357   10.0400 C.2     1  UNL1        0.2270
     29 O          61.8572   86.2913   11.5178 O.2     1  UNL1       -0.2748
     30 C          62.7776   84.8146    7.9510 C.3     1  UNL1        0.0758
     31 C          62.0164   84.4700    6.7053 C.3     1  UNL1        0.0215
     32 C          63.4944   84.7166    6.6370 C.3     1  UNL1        0.0215
     33 C          63.8006   84.3601   10.2956 C.3     1  UNL1        0.1209
     34 C          62.8046   83.4149   14.0190 C.ar    1  UNL1       -0.0027
     35 C          62.4020   81.9799   13.8492 C.ar    1  UNL1       -0.0018
     36 C          62.4657   81.3383   12.4948 C.ar    1  UNL1        0.0109
     37 C          62.9319   82.1318   11.3102 C.ar    1  UNL1        0.0553
     38 CL         62.9955   81.4903    9.9558 Cl      1  UNL1       -0.0825
     39 C          63.3344   83.5667   11.4801 C.ar    1  UNL1        0.0080
     40 C          63.2708   84.2083   12.8345 C.ar    1  UNL1       -0.0044
     41 C          62.7410   84.0564   15.3734 C.3     1  UNL1        0.1194
     42 C          63.8315   86.4131   15.4562 C.2     1  UNL1        0.4020
     43 O          65.1876   85.7909   15.3012 O.2     1  UNL1       -0.2264
     44 N          62.6082   85.5458   15.4923 N.am    1  UNL1       -0.2665
     45 H          61.7182   85.9541   15.5941 H       1  UNL1        0.1531
     46 C          63.1281   88.5073   16.8235 C.3     1  UNL1        0.2573
     47 O          63.6988   87.9024   15.5751 O.3     1  UNL1       -0.4306
@<TRIPOS>BOND
     1    46    47    1
     2    47    42    1
     3    42    43    2
     4    42    44   am
     5    44    41    1
     6    41    34    1
     7    34    35   ar
     8    35    36   ar
     9    36    37   ar
    10    37    38    1
    11    37    39   ar
    12    39    33    1
    13    33    27    1
    14    27    28   am
    15    28    29    2
    16     1    28    1
    17     1     2    1
    18     2     3    1
    19     3     4    1
    20     4     5    1
    21     5     6    1
    22     6     8    1
    23     8     9   ar
    24     9    10   ar
    25    10    11   ar
    26    11    14    1
    27    14    15    1
    28    15    16    1
    29    16    17    1
    30    17    18    1
    31    18    19   ar
    32    19    20    1
    33    19    21   ar
    34    21    22   ar
    35    22    23    1
    36    22    24   ar
    37    24    25   ar
    38    25    26    1
    39    11    12   ar
    40    12    13   ar
    41    27    30    1
    42    30    31    1
    43    31    32    1
    44    39    40   ar
    45    40    34   ar
    46     6     1    1
    47    13     8   ar
    48    32    30    1
    49    25    18   ar
    50    44    45    1
    51     3     7    1
@<TRIPOS>MOLECULE
*****
 47 51 0 0 0
SMALL
GASTEIGER

@<TRIPOS>ATOM
      1 C          60.0726   88.0964    9.7240 C.3     1  UNL1        0.0964
      2 C          59.1183   87.3819    8.8137 C.3     1  UNL1        0.0780
      3 N          58.8519   87.9162    7.4377 N.3     1  UNL1       -0.2970
      4 C          59.5398   89.1652    6.9720 C.3     1  UNL1        0.0689
      5 C          60.4941   89.8797    7.8823 C.3     1  UNL1        0.0220
      6 C          60.7605   89.3453    9.2583 C.3     1  UNL1        0.0337
      7 H          57.8490   88.0933    7.3796 H       1  UNL1        0.1233
      8 C          61.7149   90.0599   10.1687 C.ar    1  UNL1       -0.0217
      9 C          61.6388   89.8469   11.6515 C.ar    1  UNL1       -0.0012
     10 C          62.5931   90.5614   12.5618 C.ar    1  UNL1        0.0366
     11 C          63.6235   91.4890   11.9893 C.ar    1  UNL1        0.1387
     12 C          63.6996   91.7020   10.5065 C.ar    1  UNL1        0.0366
     13 C          62.7453   90.9875    9.5962 C.ar    1  UNL1       -0.0012
     14 O          64.5778   92.2035   12.8996 O.3     1  UNL1       -0.4714
     15 C          66.0196   91.7925   12.9466 C.3     1  UNL1        0.2525
     16 C          66.9323   92.1262   11.8041 C.3     1  UNL1        0.2525
     17 O          67.4875   93.5131   11.6681 O.3     1  UNL1       -0.4697
     18 C          67.1340   94.3487   10.4736 C.ar    1  UNL1        0.1596
     19 C          66.3592   95.6208   10.6509 C.ar    1  UNL1        0.0921
     20 CL         65.9379   96.0572   12.0227 Cl      1  UNL1       -0.0791
     21 C          66.0057   96.4563    9.4564 C.ar    1  UNL1        0.0103
     22 C          66.4270   96.0199    8.0846 C.ar    1  UNL1       -0.0200
     23 C          66.0736   96.8554    6.8901 C.3     1  UNL1        0.0311
     24 C          67.2019   94.7477    7.9072 C.ar    1  UNL1        0.0103
     25 C          67.5554   93.9122    9.1017 C.ar    1  UNL1        0.0921
     26 CL         68.3302   92.6401    8.9244 Cl      1  UNL1       -0.0791
     27 N          61.3526   86.4744   11.2991 N.am    1  UNL1       -0.2770
     28 C          60.3390   87.5620   11.1001 C.2     1  UNL1        0.2270
     29 O          59.5917   88.1153   12.2772 O.2     1  UNL1       -0.2748
     30 C          62.0998   85.9211   10.1220 C.3     1  UNL1        0.0758
     31 C          63.0109   84.8861    9.5315 C.3     1  UNL1        0.0215
     32 C          62.4830   85.9977    8.6738 C.3     1  UNL1        0.0215
     33 C          61.6189   85.9399   12.6751 C.3     1  UNL1        0.1209
     34 C          63.7322   82.5812   12.6217 C.ar    1  UNL1       -0.0027
     35 C          64.9736   83.0159   13.3429 C.ar    1  UNL1       -0.0018
     36 C          65.0968   84.4253   13.8415 C.ar    1  UNL1        0.0109
     37 C          63.9785   85.3999   13.6188 C.ar    1  UNL1        0.0553
     38 CL         64.1016   86.8093   14.1174 Cl      1  UNL1       -0.0825
     39 C          62.7371   84.9653   12.8977 C.ar    1  UNL1        0.0080
     40 C          62.6140   83.5559   12.3991 C.ar    1  UNL1       -0.0044
     41 C          63.6091   81.1719   12.1231 C.3     1  UNL1        0.1194
     42 C          61.7230   80.4329   13.7500 C.2     1  UNL1        0.4020
     43 O          62.3371   81.2624   14.8386 O.2     1  UNL1       -0.2264
     44 N          62.3590   80.3877   12.3922 N.am    1  UNL1       -0.2665
     45 H          61.9560   79.8433   11.6778 H       1  UNL1        0.1531
     46 C          59.1728   80.3629   14.2412 C.3     1  UNL1        0.2573
     47 O          60.4730   79.6487   14.0191 O.3     1  UNL1       -0.4306
@<TRIPOS>BOND
     1    46    47    1
     2    47    42    1
     3    42    43    2
     4    42    44   am
     5    44    41    1
     6    41    34    1
     7    34    35   ar
     8    35    36   ar
     9    36    37   ar
    10    37    38    1
    11    37    39   ar
    12    39    33    1
    13    33    27    1
    14    27    28   am
    15    28    29    2
    16     1    28    1
    17     1     2    1
    18     2     3    1
    19     3     4    1
    20     4     5    1
    21     5     6    1
    22     6     8    1
    23     8     9   ar
    24     9    10   ar
    25    10    11   ar
    26    11    14    1
    27    14    15    1
    28    15    16    1
    29    16    17    1
    30    17    18    1
    31    18    19   ar
    32    19    20    1
    33    19    21   ar
    34    21    22   ar
    35    22    23    1
    36    22    24   ar
    37    24    25   ar
    38    25    26    1
    39    11    12   ar
    40    12    13   ar
    41    27    30    1
    42    30    31    1
    43    31    32    1
    44    39    40   ar
    45    40    34   ar
    46     6     1    1
    47    13     8   ar
    48    32    30    1
    49    25    18   ar
    50    44    45    1
    51     3     7    1
