@<TRIPOS>MOLECULE
*****
 43 48 0 0 0
SMALL
GASTEIGER

@<TRIPOS>ATOM
      1 N          60.0754   89.0332    8.3887 N.3     1  UNL1       -0.2688
      2 C          61.2556   88.1107    8.4684 C.3     1  UNL1        0.0741
      3 C          62.1656   88.1582    9.6599 C.3     1  UNL1        0.0372
      4 C          61.8953   89.1283   10.7717 C.3     1  UNL1        0.0799
      5 C          60.7152   90.0507   10.6920 C.3     1  UNL1        0.0372
      6 C          59.8053   90.0032    9.5005 C.3     1  UNL1        0.0741
      7 N          62.8053   89.1758   11.9633 N.am    1  UNL1       -0.2618
      8 C          63.3451   90.4161   12.6115 C.2     1  UNL1        0.3074
      9 O          63.0698   91.8267   12.1820 O.2     1  UNL1       -0.2523
     10 N          64.2086   89.9982   13.7647 N.am    1  UNL1       -0.2635
     11 C          64.2025   88.4996   13.8291 C.3     1  UNL1        0.1192
     12 C          63.3352   87.9914   12.7158 C.3     1  UNL1        0.1191
     13 C          63.0482   86.5514   12.4089 C.ar    1  UNL1       -0.0017
     14 C          62.3091   86.1844   11.1562 C.ar    1  UNL1       -0.0026
     15 C          62.0221   84.7444   10.8493 C.ar    1  UNL1        0.0006
     16 C          62.4741   83.6715   11.7951 C.ar    1  UNL1        0.0114
     17 C          63.2131   84.0385   13.0477 C.ar    1  UNL1        0.0574
     18 CL         63.6651   82.9655   13.9935 Cl      1  UNL1       -0.0823
     19 C          63.5001   85.4784   13.3546 C.ar    1  UNL1        0.0088
     20 C          64.9484   90.9176   14.6907 C.3     1  UNL1        0.0819
     21 C          66.3684   91.2984   14.3930 C.3     1  UNL1        0.0520
     22 C          67.1081   92.2177   15.3190 C.3     1  UNL1        0.1439
     23 O          66.4279   92.7562   16.5427 O.3     1  UNL1       -0.3537
     24 C          65.0080   92.3753   16.8404 C.3     1  UNL1        0.1439
     25 C          64.2682   91.4560   15.9143 C.3     1  UNL1        0.0520
     26 C          59.1655   88.9857    7.1972 C.3     1  UNL1        0.1003
     27 C          56.6671   90.1351    5.9983 C.3     1  UNL1        0.0519
     28 C          58.0106   90.6192    5.5394 C.ar    1  UNL1        0.0598
     29 N          58.1050   91.6779    4.4810 N.ar    1  UNL1       -0.2160
     30 C          59.4485   92.1620    4.0221 C.ar    1  UNL1        0.2293
     31 C          60.6977   91.5873    4.6214 C.ar    1  UNL1        0.0578
     32 C          60.6033   90.5286    5.6798 C.ar    1  UNL1        0.0031
     33 C          59.2598   90.0445    6.1387 C.ar    1  UNL1        0.0077
     34 O          59.5428   93.2207    2.9636 O.3     1  UNL1       -0.4361
     35 C          60.8596   93.5075    2.3049 C.ar    1  UNL1        0.1472
     36 C          61.1720   94.8940    1.8252 C.ar    1  UNL1        0.0376
     37 C          62.4887   95.1808    1.1664 C.ar    1  UNL1        0.0043
     38 C          63.4931   94.0810    0.9874 C.ar    1  UNL1        0.0142
     39 C          63.1806   92.6946    1.4671 C.ar    1  UNL1        0.0043
     40 C          61.8638   92.4078    2.1259 C.ar    1  UNL1        0.0376
     41 C          64.8098   94.3677    0.3287 C.2     1  UNL1        0.0729
     42 O          65.9833   93.4664    0.5743 O.co2   1  UNL1       -0.5446
     43 O          64.9530   95.5559   -0.5757 O.co2   1  UNL1       -0.5446
@<TRIPOS>UNITY_ATOM_ATTR
42 1
charge -1
@<TRIPOS>BOND
     1    27    28    1
     2    28    29   ar
     3    29    30   ar
     4    30    34    1
     5    34    35    1
     6    35    36   ar
     7    36    37   ar
     8    37    38   ar
     9    38    41    1
    10    41    42   ar
    11    41    43   ar
    12    38    39   ar
    13    39    40   ar
    14    30    31   ar
    15    31    32   ar
    16    32    33   ar
    17    33    26    1
    18    26     1    1
    19     1     2    1
    20     2     3    1
    21     3     4    1
    22     4     7    1
    23     7     8   am
    24     8     9    2
    25     8    10   am
    26    10    20    1
    27    20    21    1
    28    21    22    1
    29    22    23    1
    30    23    24    1
    31    24    25    1
    32    10    11    1
    33    11    12    1
    34    12    13    1
    35    13    14   ar
    36    14    15   ar
    37    15    16   ar
    38    16    17   ar
    39    17    18    1
    40    17    19   ar
    41     4     5    1
    42     5     6    1
    43    33    28   ar
    44     6     1    1
    45    40    35   ar
    46    12     7    1
    47    19    13   ar
    48    25    20    1
@<TRIPOS>MOLECULE
*****
 43 48 0 0 0
SMALL
GASTEIGER

@<TRIPOS>ATOM
      1 N          59.3816   89.0737    7.6838 N.3     1  UNL1       -0.2688
      2 C          59.7237   89.8387    8.9280 C.3     1  UNL1        0.0741
      3 C          60.5690   89.2023    9.9912 C.3     1  UNL1        0.0372
      4 C          61.0722   87.8008    9.8102 C.3     1  UNL1        0.0799
      5 C          60.7302   87.0358    8.5661 C.3     1  UNL1        0.0372
      6 C          59.8849   87.6723    7.5029 C.3     1  UNL1        0.0741
      7 N          61.9176   87.1643   10.8734 N.am    1  UNL1       -0.2618
      8 C          61.8856   85.7204   11.2784 C.2     1  UNL1        0.3074
      9 O          61.0026   84.6594   10.6913 O.2     1  UNL1       -0.2523
     10 N          62.8915   85.5237   12.3736 N.am    1  UNL1       -0.2635
     11 C          63.5453   86.8461   12.6454 C.3     1  UNL1        0.1192
     12 C          62.9433   87.8600   11.7182 C.3     1  UNL1        0.1191
     13 C          63.3039   89.3144   11.6482 C.ar    1  UNL1       -0.0017
     14 C          63.0526   90.0897   10.3889 C.ar    1  UNL1       -0.0026
     15 C          63.4131   91.5440   10.3189 C.ar    1  UNL1        0.0006
     16 C          64.0250   92.2231   11.5082 C.ar    1  UNL1        0.0114
     17 C          64.2763   91.4479   12.7675 C.ar    1  UNL1        0.0574
     18 CL         64.8881   92.1271   13.9568 Cl      1  UNL1       -0.0823
     19 C          63.9157   89.9936   12.8375 C.ar    1  UNL1        0.0088
     20 C          63.1911   84.2315   13.0739 C.3     1  UNL1        0.0819
     21 C          63.8753   83.1194   12.3354 C.3     1  UNL1        0.0520
     22 C          64.1749   81.8272   13.0358 C.3     1  UNL1        0.1439
     23 O          63.7903   81.6472   14.4744 O.3     1  UNL1       -0.3537
     24 C          63.1062   82.7593   15.2128 C.3     1  UNL1        0.1439
     25 C          62.8066   84.0515   14.5125 C.3     1  UNL1        0.0520
     26 C          58.5363   89.7101    6.6207 C.3     1  UNL1        0.1003
     27 C          56.8337   91.5685    4.9934 C.3     1  UNL1        0.0519
     28 C          58.3178   91.5292    4.7786 C.ar    1  UNL1        0.0598
     29 N          58.9505   92.4191    3.7502 N.ar    1  UNL1       -0.2160
     30 C          60.4345   92.3798    3.5353 C.ar    1  UNL1        0.2293
     31 C          61.2858   91.4507    4.3489 C.ar    1  UNL1        0.0578
     32 C          60.6530   90.5608    5.3773 C.ar    1  UNL1        0.0031
     33 C          59.1690   90.6001    5.5922 C.ar    1  UNL1        0.0077
     34 O          61.0673   93.2698    2.5069 O.3     1  UNL1       -0.4361
     35 C          60.3679   93.5266    1.2050 C.ar    1  UNL1        0.1472
     36 C          59.6899   94.8430    0.9648 C.ar    1  UNL1        0.0376
     37 C          58.9905   95.0998   -0.3371 C.ar    1  UNL1        0.0043
     38 C          58.9691   94.0403   -1.3988 C.ar    1  UNL1        0.0142
     39 C          59.6471   92.7240   -1.1585 C.ar    1  UNL1        0.0043
     40 C          60.3465   92.4672    0.1433 C.ar    1  UNL1        0.0376
     41 C          58.2697   94.2971   -2.7007 C.2     1  UNL1        0.0729
     42 O          58.5713   93.4420   -3.8955 O.co2   1  UNL1       -0.5446
     43 O          57.2687   95.4092   -2.8076 O.co2   1  UNL1       -0.5446
@<TRIPOS>UNITY_ATOM_ATTR
42 1
charge -1
@<TRIPOS>BOND
     1    27    28    1
     2    28    29   ar
     3    29    30   ar
     4    30    34    1
     5    34    35    1
     6    35    36   ar
     7    36    37   ar
     8    37    38   ar
     9    38    41    1
    10    41    42   ar
    11    41    43   ar
    12    38    39   ar
    13    39    40   ar
    14    30    31   ar
    15    31    32   ar
    16    32    33   ar
    17    33    26    1
    18    26     1    1
    19     1     2    1
    20     2     3    1
    21     3     4    1
    22     4     7    1
    23     7     8   am
    24     8     9    2
    25     8    10   am
    26    10    20    1
    27    20    21    1
    28    21    22    1
    29    22    23    1
    30    23    24    1
    31    24    25    1
    32    10    11    1
    33    11    12    1
    34    12    13    1
    35    13    14   ar
    36    14    15   ar
    37    15    16   ar
    38    16    17   ar
    39    17    18    1
    40    17    19   ar
    41     4     5    1
    42     5     6    1
    43    33    28   ar
    44     6     1    1
    45    40    35   ar
    46    12     7    1
    47    19    13   ar
    48    25    20    1
@<TRIPOS>MOLECULE
*****
 43 48 0 0 0
SMALL
GASTEIGER

@<TRIPOS>ATOM
      1 N          63.9799   88.2144   15.3591 N.3     1  UNL1       -0.2688
      2 C          63.8780   87.7885   13.9244 C.3     1  UNL1        0.0741
      3 C          64.0057   88.8056   12.8293 C.3     1  UNL1        0.0372
      4 C          64.2354   90.2486   13.1690 C.3     1  UNL1        0.0799
      5 C          64.3373   90.6743   14.6036 C.3     1  UNL1        0.0372
      6 C          64.2095   89.6573   15.6987 C.3     1  UNL1        0.0741
      7 N          64.3631   91.2657   12.0739 N.am    1  UNL1       -0.2618
      8 C          65.3818   92.3646   12.0057 C.2     1  UNL1        0.3074
      9 O          66.4515   92.6394   13.0206 O.2     1  UNL1       -0.2523
     10 N          65.1429   93.1405   10.7444 N.am    1  UNL1       -0.2635
     11 C          63.9766   92.5211   10.0330 C.3     1  UNL1        0.1192
     12 C          63.4947   91.3624   10.8547 C.3     1  UNL1        0.1191
     13 C          62.3459   90.4590   10.5165 C.ar    1  UNL1       -0.0017
     14 C          60.9404   90.8883   10.8172 C.ar    1  UNL1       -0.0026
     15 C          59.7917   89.9849   10.4791 C.ar    1  UNL1        0.0006
     16 C          60.0484   88.6523    9.8402 C.ar    1  UNL1        0.0114
     17 C          61.4539   88.2230    9.5396 C.ar    1  UNL1        0.0574
     18 CL         61.7105   86.8903    8.9007 Cl      1  UNL1       -0.0823
     19 C          62.6025   89.1263    9.8777 C.ar    1  UNL1        0.0088
     20 C          65.9318   94.3274   10.2766 C.3     1  UNL1        0.0819
     21 C          65.7626   95.6548   10.9545 C.3     1  UNL1        0.0520
     22 C          66.5515   96.8417   10.4867 C.3     1  UNL1        0.1439
     23 O          67.5096   96.7013    9.3411 O.3     1  UNL1       -0.3537
     24 C          67.6787   95.3739    8.6633 C.3     1  UNL1        0.1439
     25 C          66.8898   94.1870    9.1311 C.3     1  UNL1        0.0520
     26 C          63.8521   87.1973   16.4542 C.3     1  UNL1        0.1003
     27 C          61.0063   86.3069   16.7836 C.3     1  UNL1        0.0519
     28 C          62.0421   85.3407   16.2902 C.ar    1  UNL1        0.0598
     29 N          61.6551   83.9293   15.9614 N.ar    1  UNL1       -0.2160
     30 C          62.6909   82.9631   15.4679 C.ar    1  UNL1        0.2293
     31 C          64.1138   83.4083   15.3032 C.ar    1  UNL1        0.0578
     32 C          64.5008   84.8196   15.6320 C.ar    1  UNL1        0.0031
     33 C          63.4650   85.7858   16.1255 C.ar    1  UNL1        0.0077
     34 O          62.3038   81.5516   15.1392 O.3     1  UNL1       -0.4361
     35 C          62.4513   81.0408   13.7365 C.ar    1  UNL1        0.1472
     36 C          62.3273   79.5724   13.4562 C.ar    1  UNL1        0.0376
     37 C          62.4748   79.0617   12.0535 C.ar    1  UNL1        0.0043
     38 C          62.7462   80.0193   10.9313 C.ar    1  UNL1        0.0142
     39 C          62.8701   81.4876   11.2117 C.ar    1  UNL1        0.0043
     40 C          62.7226   81.9984   12.6143 C.ar    1  UNL1        0.0376
     41 C          62.8937   79.5085    9.5287 C.2     1  UNL1        0.0729
     42 O          64.1543   78.8095    9.1137 O.co2   1  UNL1       -0.5446
     43 O          61.7805   79.6967    8.5410 O.co2   1  UNL1       -0.5446
@<TRIPOS>UNITY_ATOM_ATTR
42 1
charge -1
@<TRIPOS>BOND
     1    27    28    1
     2    28    29   ar
     3    29    30   ar
     4    30    34    1
     5    34    35    1
     6    35    36   ar
     7    36    37   ar
     8    37    38   ar
     9    38    41    1
    10    41    42   ar
    11    41    43   ar
    12    38    39   ar
    13    39    40   ar
    14    30    31   ar
    15    31    32   ar
    16    32    33   ar
    17    33    26    1
    18    26     1    1
    19     1     2    1
    20     2     3    1
    21     3     4    1
    22     4     7    1
    23     7     8   am
    24     8     9    2
    25     8    10   am
    26    10    20    1
    27    20    21    1
    28    21    22    1
    29    22    23    1
    30    23    24    1
    31    24    25    1
    32    10    11    1
    33    11    12    1
    34    12    13    1
    35    13    14   ar
    36    14    15   ar
    37    15    16   ar
    38    16    17   ar
    39    17    18    1
    40    17    19   ar
    41     4     5    1
    42     5     6    1
    43    33    28   ar
    44     6     1    1
    45    40    35   ar
    46    12     7    1
    47    19    13   ar
    48    25    20    1
@<TRIPOS>MOLECULE
*****
 43 48 0 0 0
SMALL
GASTEIGER

@<TRIPOS>ATOM
      1 N          60.1150   89.1619    7.9662 N.3     1  UNL1       -0.2688
      2 C          61.1467   88.0899    8.1574 C.3     1  UNL1        0.0741
      3 C          61.9889   88.0723    9.3985 C.3     1  UNL1        0.0372
      4 C          61.7994   89.1268   10.4485 C.3     1  UNL1        0.0799
      5 C          60.7678   90.1987   10.2573 C.3     1  UNL1        0.0372
      6 C          59.9256   90.2163    9.0161 C.3     1  UNL1        0.0741
      7 N          62.6416   89.1092   11.6896 N.am    1  UNL1       -0.2618
      8 C          63.0961   90.3109   12.4638 C.2     1  UNL1        0.3074
      9 O          62.7881   91.7411   12.1329 O.2     1  UNL1       -0.2523
     10 N          63.9126   89.8312   13.6272 N.am    1  UNL1       -0.2635
     11 C          63.9627   88.3331   13.5719 C.3     1  UNL1        0.1192
     12 C          63.1772   87.8869   12.3744 C.3     1  UNL1        0.1191
     13 C          62.9647   86.4675   11.9384 C.ar    1  UNL1       -0.0017
     14 C          62.6666   85.4068   12.9563 C.ar    1  UNL1       -0.0026
     15 C          62.4541   83.9874   12.5203 C.ar    1  UNL1        0.0006
     16 C          62.5397   83.6286   11.0663 C.ar    1  UNL1        0.0114
     17 C          62.8377   84.6893   10.0484 C.ar    1  UNL1        0.0574
     18 CL         62.9233   84.3305    8.5944 Cl      1  UNL1       -0.0823
     19 C          63.0502   86.1086   10.4844 C.ar    1  UNL1        0.0088
     20 C          64.5644   90.6976   14.6637 C.3     1  UNL1        0.0819
     21 C          65.9484   91.2287   14.4346 C.3     1  UNL1        0.0520
     22 C          66.6003   92.0951   15.4712 C.3     1  UNL1        0.1439
     23 O          65.8681   92.4304   16.7367 O.3     1  UNL1       -0.3537
     24 C          64.4842   91.8993   16.9657 C.3     1  UNL1        0.1439
     25 C          63.8323   91.0329   15.9292 C.3     1  UNL1        0.0520
     26 C          59.2728   89.1795    6.7251 C.3     1  UNL1        0.1003
     27 C          56.8096   90.5306    5.6728 C.3     1  UNL1        0.0519
     28 C          58.1658   90.9882    5.2241 C.ar    1  UNL1        0.0598
     29 N          58.2904   92.1214    4.2492 N.ar    1  UNL1       -0.2160
     30 C          59.6466   92.5790    3.8004 C.ar    1  UNL1        0.2293
     31 C          60.8782   91.9034    4.3266 C.ar    1  UNL1        0.0578
     32 C          60.7535   90.7703    5.3014 C.ar    1  UNL1        0.0031
     33 C          59.3974   90.3127    5.7502 C.ar    1  UNL1        0.0077
     34 O          59.7712   93.7122    2.8255 O.3     1  UNL1       -0.4361
     35 C          59.5272   93.4749    1.3646 C.ar    1  UNL1        0.1472
     36 C          58.8283   94.5166    0.5421 C.ar    1  UNL1        0.0376
     37 C          58.5843   94.2793   -0.9188 C.ar    1  UNL1        0.0043
     38 C          59.0392   93.0004   -1.5572 C.ar    1  UNL1        0.0142
     39 C          59.7381   91.9588   -0.7346 C.ar    1  UNL1        0.0043
     40 C          59.9821   92.1960    0.7263 C.ar    1  UNL1        0.0376
     41 C          58.7952   92.7631   -3.0180 C.2     1  UNL1        0.0729
     42 O          57.7460   91.7837   -3.4538 O.co2   1  UNL1       -0.5446
     43 O          59.6005   93.5053   -4.0431 O.co2   1  UNL1       -0.5446
@<TRIPOS>UNITY_ATOM_ATTR
42 1
charge -1
@<TRIPOS>BOND
     1    27    28    1
     2    28    29   ar
     3    29    30   ar
     4    30    34    1
     5    34    35    1
     6    35    36   ar
     7    36    37   ar
     8    37    38   ar
     9    38    41    1
    10    41    42   ar
    11    41    43   ar
    12    38    39   ar
    13    39    40   ar
    14    30    31   ar
    15    31    32   ar
    16    32    33   ar
    17    33    26    1
    18    26     1    1
    19     1     2    1
    20     2     3    1
    21     3     4    1
    22     4     7    1
    23     7     8   am
    24     8     9    2
    25     8    10   am
    26    10    20    1
    27    20    21    1
    28    21    22    1
    29    22    23    1
    30    23    24    1
    31    24    25    1
    32    10    11    1
    33    11    12    1
    34    12    13    1
    35    13    14   ar
    36    14    15   ar
    37    15    16   ar
    38    16    17   ar
    39    17    18    1
    40    17    19   ar
    41     4     5    1
    42     5     6    1
    43    33    28   ar
    44     6     1    1
    45    40    35   ar
    46    12     7    1
    47    19    13   ar
    48    25    20    1
