@<TRIPOS>MOLECULE
*****
 29 32 0 0 0
SMALL
GASTEIGER

@<TRIPOS>ATOM
      1 C          63.1047   90.5776   10.8241 C.3     1  UNL1        0.1910
      2 C          63.4828   90.4338   12.2685 C.3     1  UNL1        0.0424
      3 C          64.5544   91.3052   12.8535 C.3     1  UNL1        0.0431
      4 C          64.9325   91.1615   14.2980 C.3     1  UNL1        0.0921
      5 S          66.0042   92.0328   14.8830 S.3     1  UNL1       -0.0787
      6 C          66.6977   93.0479   14.0236 C.2     1  UNL1        0.1483
      7 N          67.7694   93.9193   14.6087 N.pl3   1  UNL1       -0.3380
      8 N          66.3197   93.1916   12.5792 N.2     1  UNL1       -0.2484
      9 C          65.2480   92.3203   11.9941 C.3     1  UNL1        0.1352
     10 C          64.8699   92.4640   10.5497 C.3     1  UNL1        0.1692
     11 O          63.7983   91.5926    9.9647 O.3     1  UNL1       -0.3446
     12 H          68.0176   93.8249   15.5567 H       1  UNL1        0.1442
     13 H          68.2247   94.5855   14.0446 H       1  UNL1        0.1442
     14 C          65.9415   93.3353   11.1347 C.ar    1  UNL1        0.0278
     15 C          65.4177   94.7390   11.0608 C.ar    1  UNL1        0.0021
     16 C          66.1112   95.7541   10.2014 C.ar    1  UNL1        0.0295
     17 C          67.3287   95.3655    9.4159 C.ar    1  UNL1        0.1424
     18 F          68.0223   96.3806    8.5565 F       1  UNL1       -0.2041
     19 C          67.8525   93.9619    9.4899 C.ar    1  UNL1        0.0590
     20 C          67.1589   92.9468   10.3493 C.ar    1  UNL1        0.1402
     21 F          67.6828   91.5433   10.4232 F       1  UNL1       -0.2044
     22 C          60.5659   86.4123    8.8025 C.3     1  UNL1        0.0556
     23 C          60.8661   87.7917    9.3098 C.ar    1  UNL1        0.0997
     24 C          59.9016   88.9391    9.3676 C.ar    1  UNL1        0.1958
     25 O          60.6228   90.1223    9.9419 O.2     1  UNL1       -0.4331
     26 C          62.0330   89.7062   10.2390 C.ar    1  UNL1        0.2327
     27 N          62.1833   88.2658    9.8484 N.ar    1  UNL1       -0.2144
     28 C          64.2390   90.1464   15.1574 C.3     1  UNL1        0.2044
     29 F          64.4842   88.6832   14.9361 F       1  UNL1       -0.2334
@<TRIPOS>BOND
     1    22    23    1
     2    23    24   ar
     3    24    25   ar
     4    25    26   ar
     5     1    26    1
     6     1     2    1
     7     3     2    1
     8     3     4    1
     9     4    28    1
    10    28    29    1
    11     4     5    1
    12     5     6    1
    13     6     7    1
    14     6     8    2
    15     8     9    1
    16     9    14    1
    17    14    15   ar
    18    15    16   ar
    19    16    17   ar
    20    17    18    1
    21    17    19   ar
    22    19    20   ar
    23    20    21    1
    24     9    10    1
    25    10    11    1
    26    26    27   ar
    27    27    23   ar
    28    11     1    1
    29     9     3    1
    30    20    14   ar
    31     7    12    1
    32     7    13    1
@<TRIPOS>MOLECULE
*****
 29 32 0 0 0
SMALL
GASTEIGER

@<TRIPOS>ATOM
      1 C          61.3592   86.7597   10.3085 C.3     1  UNL1        0.1910
      2 C          62.0596   87.7764   11.1604 C.3     1  UNL1        0.0424
      3 C          62.8858   87.3327   12.3311 C.3     1  UNL1        0.0431
      4 C          63.5863   88.3493   13.1830 C.3     1  UNL1        0.0921
      5 S          64.4125   87.9056   14.3537 S.3     1  UNL1       -0.0787
      6 C          64.5383   86.4453   14.6725 C.2     1  UNL1        0.1483
      7 N          65.3645   86.0016   15.8432 N.pl3   1  UNL1       -0.3380
      8 N          63.8378   85.4286   13.8206 N.2     1  UNL1       -0.2484
      9 C          63.0116   85.8723   12.6498 C.3     1  UNL1        0.1352
     10 C          62.3111   84.8557   11.7979 C.3     1  UNL1        0.1692
     11 O          61.4849   85.2994   10.6273 O.3     1  UNL1       -0.3446
     12 H          65.8243   86.6688   16.4023 H       1  UNL1        0.1442
     13 H          65.4471   85.0431   16.0524 H       1  UNL1        0.1442
     14 C          63.1373   84.4120   12.9686 C.ar    1  UNL1        0.0278
     15 C          64.0599   83.5453   12.1636 C.ar    1  UNL1        0.0021
     16 C          64.1856   82.0850   12.4824 C.ar    1  UNL1        0.0295
     17 C          63.3888   81.4913   13.6061 C.ar    1  UNL1        0.1424
     18 F          63.5145   80.0310   13.9248 F       1  UNL1       -0.2041
     19 C          62.4663   82.3579   14.4110 C.ar    1  UNL1        0.0590
     20 C          62.3405   83.8183   14.0922 C.ar    1  UNL1        0.1402
     21 F          61.4180   84.6849   14.8971 F       1  UNL1       -0.2044
     22 C          59.1746   89.7607    6.5531 C.3     1  UNL1        0.0556
     23 C          59.5288   88.5828    7.4116 C.ar    1  UNL1        0.0997
     24 C          58.9942   87.1894    7.2609 C.ar    1  UNL1        0.1958
     25 O          59.6148   86.3369    8.3277 O.2     1  UNL1       -0.4331
     26 C          60.5329   87.2034    9.1378 C.ar    1  UNL1        0.2327
     27 N          60.4798   88.5914    8.5716 N.ar    1  UNL1       -0.2144
     28 C          63.4606   89.8096   12.8643 C.3     1  UNL1        0.2044
     29 F          64.6359   90.7223   13.0526 F       1  UNL1       -0.2334
@<TRIPOS>BOND
     1    22    23    1
     2    23    24   ar
     3    24    25   ar
     4    25    26   ar
     5     1    26    1
     6     1     2    1
     7     3     2    1
     8     3     4    1
     9     4    28    1
    10    28    29    1
    11     4     5    1
    12     5     6    1
    13     6     7    1
    14     6     8    2
    15     8     9    1
    16     9    14    1
    17    14    15   ar
    18    15    16   ar
    19    16    17   ar
    20    17    18    1
    21    17    19   ar
    22    19    20   ar
    23    20    21    1
    24     9    10    1
    25    10    11    1
    26    26    27   ar
    27    27    23   ar
    28    11     1    1
    29     9     3    1
    30    20    14   ar
    31     7    12    1
    32     7    13    1
@<TRIPOS>MOLECULE
*****
 29 32 0 0 0
SMALL
GASTEIGER

@<TRIPOS>ATOM
      1 C          63.0982   88.9166   12.8623 C.3     1  UNL1        0.1910
      2 C          62.0554   89.4122   11.9048 C.3     1  UNL1        0.0424
      3 C          61.4817   88.4848   10.8749 C.3     1  UNL1        0.0431
      4 C          60.4388   88.9803    9.9173 C.3     1  UNL1        0.0921
      5 S          59.8650   88.0529    8.8874 S.3     1  UNL1       -0.0787
      6 C          60.3341   86.6299    8.8151 C.2     1  UNL1        0.1483
      7 N          59.7603   85.7025    7.7851 N.pl3   1  UNL1       -0.3380
      8 N          61.3770   86.1344    9.7726 N.2     1  UNL1       -0.2484
      9 C          61.9508   87.0618   10.8025 C.3     1  UNL1        0.1352
     10 C          62.9936   86.5663   11.7601 C.3     1  UNL1        0.1692
     11 O          63.5673   87.4937   12.7900 O.3     1  UNL1       -0.3446
     12 H          59.0759   86.0278    7.1566 H       1  UNL1        0.1442
     13 H          60.0682   84.7686    7.7376 H       1  UNL1        0.1442
     14 C          62.4199   85.6389   10.7302 C.ar    1  UNL1        0.0278
     15 C          62.1155   84.6909   11.8521 C.ar    1  UNL1        0.0021
     16 C          62.5845   83.2680   11.7798 C.ar    1  UNL1        0.0295
     17 C          63.3580   82.7931   10.5855 C.ar    1  UNL1        0.1424
     18 F          63.8271   81.3701   10.5131 F       1  UNL1       -0.2041
     19 C          63.6624   83.7411    9.4636 C.ar    1  UNL1        0.0590
     20 C          63.1933   85.1640    9.5360 C.ar    1  UNL1        0.1402
     21 F          63.4977   86.1120    8.4141 F       1  UNL1       -0.2044
     22 C          66.2812   92.3350   15.3250 C.3     1  UNL1        0.0556
     23 C          65.1351   91.4153   15.0242 C.ar    1  UNL1        0.0997
     24 C          63.9748   91.1270   15.9302 C.ar    1  UNL1        0.1958
     25 O          63.0706   90.1559   15.2306 O.2     1  UNL1       -0.4331
     26 C          63.6720   89.8440   13.8923 C.ar    1  UNL1        0.2327
     27 N          64.9479   90.6224   13.7648 N.ar    1  UNL1       -0.2144
     28 C          59.9697   90.4032    9.9897 C.3     1  UNL1        0.2044
     29 F          59.1744   90.8715   11.1721 F       1  UNL1       -0.2334
@<TRIPOS>BOND
     1    22    23    1
     2    23    24   ar
     3    24    25   ar
     4    25    26   ar
     5     1    26    1
     6     1     2    1
     7     3     2    1
     8     3     4    1
     9     4    28    1
    10    28    29    1
    11     4     5    1
    12     5     6    1
    13     6     7    1
    14     6     8    2
    15     8     9    1
    16     9    14    1
    17    14    15   ar
    18    15    16   ar
    19    16    17   ar
    20    17    18    1
    21    17    19   ar
    22    19    20   ar
    23    20    21    1
    24     9    10    1
    25    10    11    1
    26    26    27   ar
    27    27    23   ar
    28    11     1    1
    29     9     3    1
    30    20    14   ar
    31     7    12    1
    32     7    13    1
@<TRIPOS>MOLECULE
*****
 29 32 0 0 0
SMALL
GASTEIGER

@<TRIPOS>ATOM
      1 C          64.2995   88.4887   14.3940 C.3     1  UNL1        0.1910
      2 C          63.7142   89.0717   13.1420 C.3     1  UNL1        0.0424
      3 C          64.2064   90.3921   12.6283 C.3     1  UNL1        0.0431
      4 C          63.6211   90.9752   11.3762 C.3     1  UNL1        0.0921
      5 S          64.1134   92.2957   10.8625 S.3     1  UNL1       -0.0787
      6 C          65.1909   93.0332   11.6007 C.2     1  UNL1        0.1483
      7 N          65.6831   94.3537   11.0869 N.pl3   1  UNL1       -0.3380
      8 N          65.7762   92.4502   12.8527 N.2     1  UNL1       -0.2484
      9 C          65.2840   91.1297   13.3665 C.3     1  UNL1        0.1352
     10 C          65.8692   90.5467   14.6185 C.3     1  UNL1        0.1692
     11 O          65.3770   89.2262   15.1323 O.3     1  UNL1       -0.3446
     12 H          65.2990   94.7363   10.2652 H       1  UNL1        0.1442
     13 H          66.3903   94.8378   11.5714 H       1  UNL1        0.1442
     14 C          66.3615   91.8672   14.1048 C.ar    1  UNL1        0.0278
     15 C          66.0428   92.5710   15.3906 C.ar    1  UNL1        0.0021
     16 C          67.1204   93.3085   16.1288 C.ar    1  UNL1        0.0295
     17 C          68.5165   93.3422   15.5813 C.ar    1  UNL1        0.1424
     18 F          69.5940   94.0797   16.3195 F       1  UNL1       -0.2041
     19 C          68.8351   92.6384   14.2956 C.ar    1  UNL1        0.0590
     20 C          67.7576   91.9009   13.5573 C.ar    1  UNL1        0.1402
     21 F          68.0761   91.1971   12.2716 F       1  UNL1       -0.2044
     22 C          62.9752   83.3845   14.6682 C.3     1  UNL1        0.0556
     23 C          63.1985   84.8221   15.0339 C.ar    1  UNL1        0.0997
     24 C          62.9011   85.4502   16.3632 C.ar    1  UNL1        0.1958
     25 O          63.2773   86.9001   16.2853 O.2     1  UNL1       -0.4331
     26 C          63.8073   87.1681   14.9078 C.ar    1  UNL1        0.2327
     27 N          63.7586   85.8838   14.1344 N.ar    1  UNL1       -0.2144
     28 C          62.5436   90.2377   10.6380 C.3     1  UNL1        0.2044
     29 F          62.8683   88.9676    9.9089 F       1  UNL1       -0.2334
@<TRIPOS>BOND
     1    22    23    1
     2    23    24   ar
     3    24    25   ar
     4    25    26   ar
     5     1    26    1
     6     1     2    1
     7     3     2    1
     8     3     4    1
     9     4    28    1
    10    28    29    1
    11     4     5    1
    12     5     6    1
    13     6     7    1
    14     6     8    2
    15     8     9    1
    16     9    14    1
    17    14    15   ar
    18    15    16   ar
    19    16    17   ar
    20    17    18    1
    21    17    19   ar
    22    19    20   ar
    23    20    21    1
    24     9    10    1
    25    10    11    1
    26    26    27   ar
    27    27    23   ar
    28    11     1    1
    29     9     3    1
    30    20    14   ar
    31     7    12    1
    32     7    13    1
@<TRIPOS>MOLECULE
*****
 29 32 0 0 0
SMALL
GASTEIGER

@<TRIPOS>ATOM
      1 C          61.8635   86.8055   10.8692 C.3     1  UNL1        0.1910
      2 C          62.6500   87.2213   12.0769 C.3     1  UNL1        0.0424
      3 C          63.3037   86.1832   12.9400 C.3     1  UNL1        0.0431
      4 C          64.0902   86.5989   14.1478 C.3     1  UNL1        0.0921
      5 S          64.7439   85.5609   15.0109 S.3     1  UNL1       -0.0787
      6 C          64.6111   84.1070   14.6664 C.2     1  UNL1        0.1483
      7 N          65.2648   83.0689   15.5296 N.pl3   1  UNL1       -0.3380
      8 N          63.8246   83.6913   13.4587 N.2     1  UNL1       -0.2484
      9 C          63.1709   84.7294   12.5955 C.3     1  UNL1        0.1352
     10 C          62.3844   84.3136   11.3878 C.3     1  UNL1        0.1692
     11 O          61.7307   85.3517   10.5246 O.3     1  UNL1       -0.3446
     12 H          65.7810   83.3418   16.3223 H       1  UNL1        0.1442
     13 H          65.1776   82.1147   15.3035 H       1  UNL1        0.1442
     14 C          63.0381   83.2755   12.2509 C.ar    1  UNL1        0.0278
     15 C          62.1879   82.3780   13.1005 C.ar    1  UNL1        0.0021
     16 C          62.0551   80.9242   12.7560 C.ar    1  UNL1        0.0295
     17 C          62.7725   80.3678   11.5618 C.ar    1  UNL1        0.1424
     18 F          62.6397   78.9140   11.2173 F       1  UNL1       -0.2041
     19 C          63.6226   81.2653   10.7123 C.ar    1  UNL1        0.0590
     20 C          63.7554   82.7192   11.0568 C.ar    1  UNL1        0.1402
     21 F          64.6055   83.6167   10.2073 F       1  UNL1       -0.2044
     22 C          59.2747   89.1281    6.8962 C.3     1  UNL1        0.0556
     23 C          60.0199   88.9112    8.1798 C.ar    1  UNL1        0.0997
     24 C          60.3880   89.9710    9.1756 C.ar    1  UNL1        0.1958
     25 O          61.1234   89.3112   10.3041 O.2     1  UNL1       -0.4331
     26 C          61.2098   87.8436   10.0059 C.ar    1  UNL1        0.2327
     27 N          60.5278   87.5965    8.6930 N.ar    1  UNL1       -0.2144
     28 C          64.2230   88.0528   14.4923 C.3     1  UNL1        0.2044
     29 F          63.7790   88.5486   15.8366 F       1  UNL1       -0.2334
@<TRIPOS>BOND
     1    22    23    1
     2    23    24   ar
     3    24    25   ar
     4    25    26   ar
     5     1    26    1
     6     1     2    1
     7     3     2    1
     8     3     4    1
     9     4    28    1
    10    28    29    1
    11     4     5    1
    12     5     6    1
    13     6     7    1
    14     6     8    2
    15     8     9    1
    16     9    14    1
    17    14    15   ar
    18    15    16   ar
    19    16    17   ar
    20    17    18    1
    21    17    19   ar
    22    19    20   ar
    23    20    21    1
    24     9    10    1
    25    10    11    1
    26    26    27   ar
    27    27    23   ar
    28    11     1    1
    29     9     3    1
    30    20    14   ar
    31     7    12    1
    32     7    13    1
@<TRIPOS>MOLECULE
*****
 29 32 0 0 0
SMALL
GASTEIGER

@<TRIPOS>ATOM
      1 C          64.2082   88.3248   14.3709 C.3     1  UNL1        0.1910
      2 C          63.6230   88.9227   13.1259 C.3     1  UNL1        0.0424
      3 C          64.1155   90.2491   12.6278 C.3     1  UNL1        0.0431
      4 C          63.5303   90.8470   11.3827 C.3     1  UNL1        0.0921
      5 S          64.0227   92.1734   10.8847 S.3     1  UNL1       -0.0787
      6 C          65.1003   92.9019   11.6316 C.2     1  UNL1        0.1483
      7 N          65.5928   94.2284   11.1335 N.pl3   1  UNL1       -0.3380
      8 N          65.6855   92.3041   12.8766 N.2     1  UNL1       -0.2484
      9 C          65.1931   90.9776   13.3748 C.3     1  UNL1        0.1352
     10 C          65.7783   90.3798   14.6198 C.3     1  UNL1        0.1692
     11 O          65.2858   89.0534   15.1178 O.3     1  UNL1       -0.3446
     12 H          65.2087   94.6208   10.3163 H       1  UNL1        0.1442
     13 H          66.3000   94.7066   11.6237 H       1  UNL1        0.1442
     14 C          66.2707   91.7062   14.1217 C.ar    1  UNL1        0.0278
     15 C          67.6636   91.7585   13.5673 C.ar    1  UNL1        0.0021
     16 C          68.7412   92.4871   14.3143 C.ar    1  UNL1        0.0295
     17 C          68.4259   93.1633   15.6156 C.ar    1  UNL1        0.1424
     18 F          69.5035   93.8919   16.3626 F       1  UNL1       -0.2041
     19 C          67.0331   93.1110   16.1699 C.ar    1  UNL1        0.0590
     20 C          65.9555   92.3824   15.4230 C.ar    1  UNL1        0.1402
     21 F          64.5627   92.3301   15.9772 F       1  UNL1       -0.2044
     22 C          62.7895   83.2421   14.5562 C.3     1  UNL1        0.0556
     23 C          63.0637   84.6621   14.9542 C.ar    1  UNL1        0.0997
     24 C          62.8524   85.2523   16.3170 C.ar    1  UNL1        0.1958
     25 O          63.2555   86.6962   16.2643 O.2     1  UNL1       -0.4331
     26 C          63.7158   86.9983   14.8690 C.ar    1  UNL1        0.2327
     27 N          63.5973   85.7412   14.0593 N.ar    1  UNL1       -0.2144
     28 C          62.4527   90.1184   10.6358 C.3     1  UNL1        0.2044
     29 F          62.7913   88.8991    9.8304 F       1  UNL1       -0.2334
@<TRIPOS>BOND
     1    22    23    1
     2    23    24   ar
     3    24    25   ar
     4    25    26   ar
     5     1    26    1
     6     1     2    1
     7     3     2    1
     8     3     4    1
     9     4    28    1
    10    28    29    1
    11     4     5    1
    12     5     6    1
    13     6     7    1
    14     6     8    2
    15     8     9    1
    16     9    14    1
    17    14    15   ar
    18    15    16   ar
    19    16    17   ar
    20    17    18    1
    21    17    19   ar
    22    19    20   ar
    23    20    21    1
    24     9    10    1
    25    10    11    1
    26    26    27   ar
    27    27    23   ar
    28    11     1    1
    29     9     3    1
    30    20    14   ar
    31     7    12    1
    32     7    13    1
@<TRIPOS>MOLECULE
*****
 29 32 0 0 0
SMALL
GASTEIGER

@<TRIPOS>ATOM
      1 C          63.8491   88.6231   13.5875 C.3     1  UNL1        0.1910
      2 C          64.0836   87.3086   14.2709 C.3     1  UNL1        0.0424
      3 C          63.6549   86.0325   13.6094 C.3     1  UNL1        0.0431
      4 C          63.8894   84.7179   14.2928 C.3     1  UNL1        0.0921
      5 S          63.4608   83.4417   13.6313 S.3     1  UNL1       -0.0787
      6 C          62.7977   83.4801   12.2864 C.2     1  UNL1        0.1483
      7 N          62.3690   82.2038   11.6249 N.pl3   1  UNL1       -0.3380
      8 N          62.5632   84.7946   11.6030 N.2     1  UNL1       -0.2484
      9 C          62.9918   86.0708   12.2645 C.3     1  UNL1        0.1352
     10 C          62.7574   87.3853   11.5811 C.3     1  UNL1        0.1692
     11 O          63.1860   88.6615   12.2426 O.3     1  UNL1       -0.3446
     12 H          62.5229   81.3411   12.0734 H       1  UNL1        0.1442
     13 H          61.9338   82.2290   10.7421 H       1  UNL1        0.1442
     14 C          62.3287   86.1091   10.9196 C.ar    1  UNL1        0.0278
     15 C          63.0301   85.5418    9.7211 C.ar    1  UNL1        0.0021
     16 C          62.3670   85.5801    8.3762 C.ar    1  UNL1        0.0295
     17 C          61.0025   86.1858    8.2297 C.ar    1  UNL1        0.1424
     18 F          60.3394   86.2241    6.8848 F       1  UNL1       -0.2041
     19 C          60.3012   86.7531    9.4281 C.ar    1  UNL1        0.0590
     20 C          60.9643   86.7148   10.7731 C.ar    1  UNL1        0.1402
     21 F          60.2630   87.2821   11.9715 F       1  UNL1       -0.2044
     22 C          66.4695   93.0716   14.6948 C.3     1  UNL1        0.0556
     23 C          65.4822   91.9441   14.7580 C.ar    1  UNL1        0.0997
     24 C          64.3924   91.7824   15.7760 C.ar    1  UNL1        0.1958
     25 O          63.6481   90.5187   15.4614 O.2     1  UNL1       -0.4331
     26 C          64.2778   89.8994   14.2490 C.ar    1  UNL1        0.2327
     27 N          65.4113   90.7803   13.8143 N.ar    1  UNL1       -0.2144
     28 C          64.5525   84.6796   15.6377 C.3     1  UNL1        0.2044
     29 F          63.9740   85.4584   16.7816 F       1  UNL1       -0.2334
@<TRIPOS>BOND
     1    22    23    1
     2    23    24   ar
     3    24    25   ar
     4    25    26   ar
     5     1    26    1
     6     1     2    1
     7     3     2    1
     8     3     4    1
     9     4    28    1
    10    28    29    1
    11     4     5    1
    12     5     6    1
    13     6     7    1
    14     6     8    2
    15     8     9    1
    16     9    14    1
    17    14    15   ar
    18    15    16   ar
    19    16    17   ar
    20    17    18    1
    21    17    19   ar
    22    19    20   ar
    23    20    21    1
    24     9    10    1
    25    10    11    1
    26    26    27   ar
    27    27    23   ar
    28    11     1    1
    29     9     3    1
    30    20    14   ar
    31     7    12    1
    32     7    13    1
@<TRIPOS>MOLECULE
*****
 29 32 0 0 0
SMALL
GASTEIGER

@<TRIPOS>ATOM
      1 C          63.0364   90.9086   11.7652 C.3     1  UNL1        0.1910
      2 C          63.6141   90.7916   13.1445 C.3     1  UNL1        0.0424
      3 C          64.9532   91.3943   13.4503 C.3     1  UNL1        0.0431
      4 C          65.5310   91.2773   14.8296 C.3     1  UNL1        0.0921
      5 S          66.8701   91.8801   15.1354 S.3     1  UNL1       -0.0787
      6 C          67.6314   92.5998   14.0619 C.2     1  UNL1        0.1483
      7 N          68.9706   93.2025   14.3678 N.pl3   1  UNL1       -0.3380
      8 N          67.0537   92.7168   12.6826 N.2     1  UNL1       -0.2484
      9 C          65.7145   92.1140   12.3768 C.3     1  UNL1        0.1352
     10 C          65.1368   92.2310   10.9975 C.3     1  UNL1        0.1692
     11 O          63.7977   91.6283   10.6917 O.3     1  UNL1       -0.3446
     12 H          69.3498   93.1257   15.2730 H       1  UNL1        0.1442
     13 H          69.4703   93.6749   13.6632 H       1  UNL1        0.1442
     14 C          66.4759   92.8338   11.3033 C.ar    1  UNL1        0.0278
     15 C          67.3595   92.0647   10.3663 C.ar    1  UNL1        0.0021
     16 C          68.1208   92.7844    9.2929 C.ar    1  UNL1        0.0295
     17 C          67.9985   94.2732    9.1563 C.ar    1  UNL1        0.1424
     18 F          68.7598   94.9929    8.0828 F       1  UNL1       -0.2041
     19 C          67.1149   95.0422   10.0932 C.ar    1  UNL1        0.0590
     20 C          66.3536   94.3225   11.1667 C.ar    1  UNL1        0.1402
     21 F          65.4700   95.0915   12.1036 F       1  UNL1       -0.2044
     22 C          58.2502   88.7534   12.3386 C.3     1  UNL1        0.0556
     23 C          59.4973   89.3153   11.7229 C.ar    1  UNL1        0.0997
     24 C          59.7759   89.4415   10.2543 C.ar    1  UNL1        0.1958
     25 O          61.1355   90.0537   10.0915 O.2     1  UNL1       -0.4331
     26 C          61.6972   90.3059   11.4593 C.ar    1  UNL1        0.2327
     27 N          60.6848   89.8495   12.4675 N.ar    1  UNL1       -0.2144
     28 C          64.7697   90.5576   15.9031 C.3     1  UNL1        0.2044
     29 F          63.7489   91.2928   16.7201 F       1  UNL1       -0.2334
@<TRIPOS>BOND
     1    22    23    1
     2    23    24   ar
     3    24    25   ar
     4    25    26   ar
     5     1    26    1
     6     1     2    1
     7     3     2    1
     8     3     4    1
     9     4    28    1
    10    28    29    1
    11     4     5    1
    12     5     6    1
    13     6     7    1
    14     6     8    2
    15     8     9    1
    16     9    14    1
    17    14    15   ar
    18    15    16   ar
    19    16    17   ar
    20    17    18    1
    21    17    19   ar
    22    19    20   ar
    23    20    21    1
    24     9    10    1
    25    10    11    1
    26    26    27   ar
    27    27    23   ar
    28    11     1    1
    29     9     3    1
    30    20    14   ar
    31     7    12    1
    32     7    13    1
@<TRIPOS>MOLECULE
*****
 29 32 0 0 0
SMALL
GASTEIGER

@<TRIPOS>ATOM
      1 C          61.9699   89.4699   10.8884 C.3     1  UNL1        0.1910
      2 C          63.0086   90.5401   10.7283 C.3     1  UNL1        0.0424
      3 C          63.8871   90.9117   11.8859 C.3     1  UNL1        0.0431
      4 C          64.9259   91.9819   11.7259 C.3     1  UNL1        0.0921
      5 S          65.8044   92.3535   12.8835 S.3     1  UNL1       -0.0787
      6 C          65.6442   91.6549   14.2012 C.2     1  UNL1        0.1483
      7 N          66.5228   92.0265   15.3588 N.pl3   1  UNL1       -0.3380
      8 N          64.6055   90.5847   14.3612 N.2     1  UNL1       -0.2484
      9 C          63.7269   90.2130   13.2036 C.3     1  UNL1        0.1352
     10 C          62.6882   89.1428   13.3637 C.3     1  UNL1        0.1692
     11 O          61.8097   88.7712   12.2061 O.3     1  UNL1       -0.3446
     12 H          67.2046   92.7290   15.2537 H       1  UNL1        0.1442
     13 H          66.4177   91.5680   16.2236 H       1  UNL1        0.1442
     14 C          63.5667   89.5144   14.5213 C.ar    1  UNL1        0.0278
     15 C          63.0463   90.2662   15.7104 C.ar    1  UNL1        0.0021
     16 C          62.8861   89.5676   17.0281 C.ar    1  UNL1        0.0295
     17 C          63.2464   88.1171   17.1566 C.ar    1  UNL1        0.1424
     18 F          63.0862   87.4185   18.4743 F       1  UNL1       -0.2041
     19 C          63.7667   87.3654   15.9675 C.ar    1  UNL1        0.0590
     20 C          63.9269   88.0640   14.6498 C.ar    1  UNL1        0.1402
     21 F          64.4473   87.3123   13.4607 F       1  UNL1       -0.2044
     22 C          59.0332   86.6711    7.5084 C.3     1  UNL1        0.0556
     23 C          59.7415   87.8118    8.1772 C.ar    1  UNL1        0.0997
     24 C          59.7372   89.2410    7.7216 C.ar    1  UNL1        0.1958
     25 O          60.5714   90.0360    8.6818 O.2     1  UNL1       -0.4331
     26 C          61.0913   89.0982    9.7308 C.ar    1  UNL1        0.2327
     27 N          60.5784   87.7236    9.4189 N.ar    1  UNL1       -0.2144
     28 C          65.0861   92.6806   10.4082 C.3     1  UNL1        0.2044
     29 F          66.4528   93.0658    9.9249 F       1  UNL1       -0.2334
@<TRIPOS>BOND
     1    22    23    1
     2    23    24   ar
     3    24    25   ar
     4    25    26   ar
     5     1    26    1
     6     1     2    1
     7     3     2    1
     8     3     4    1
     9     4    28    1
    10    28    29    1
    11     4     5    1
    12     5     6    1
    13     6     7    1
    14     6     8    2
    15     8     9    1
    16     9    14    1
    17    14    15   ar
    18    15    16   ar
    19    16    17   ar
    20    17    18    1
    21    17    19   ar
    22    19    20   ar
    23    20    21    1
    24     9    10    1
    25    10    11    1
    26    26    27   ar
    27    27    23   ar
    28    11     1    1
    29     9     3    1
    30    20    14   ar
    31     7    12    1
    32     7    13    1
