@<TRIPOS>MOLECULE
*****
 32 35 0 0 0
SMALL
GASTEIGER

@<TRIPOS>ATOM
      1 C          66.4435   95.0040   12.4623 C.3     1  UNL1        0.0217
      2 C          66.5397   93.9464   13.5217 C.3     1  UNL1        0.0804
      3 C          67.3779   94.1824   14.7431 C.3     1  UNL1        0.0520
      4 C          67.4741   93.1248   15.8025 C.3     1  UNL1        0.1458
      5 O          66.7321   91.8313   15.6405 O.3     1  UNL1       -0.3359
      6 C          65.8940   91.5953   14.4191 C.3     1  UNL1        0.2175
      7 C          65.1519   90.3018   14.2571 C.3     1  UNL1        0.1572
      8 N          64.3138   90.0658   13.0358 N.ar    1  UNL1       -0.3156
      9 C          63.5718   88.7723   12.8737 C.ar    1  UNL1        0.0840
     10 C          62.7336   88.5363   11.6524 C.ar    1  UNL1        0.1125
     11 C          62.6374   89.5939   10.5930 C.ar    1  UNL1        0.2364
     12 O          61.7992   89.3579    9.3716 O.2     1  UNL1       -0.2831
     13 C          63.3793   90.8874   10.7550 C.ar    1  UNL1        0.1936
     14 O          63.2831   91.9450    9.6956 O.3     1  UNL1       -0.5017
     15 C          64.2176   91.1234   11.9764 C.ar    1  UNL1        0.1517
     16 C          64.9595   92.4169   12.1383 C.2     1  UNL1        0.2697
     17 O          64.8633   93.4745   11.0790 O.2     1  UNL1       -0.2681
     18 N          65.7978   92.6529   13.3598 N.am    1  UNL1       -0.2528
     19 H          62.7595   91.7976    8.9326 H       1  UNL1        0.2924
     20 C          61.9916   87.2428   11.4904 C.2     1  UNL1        0.2508
     21 O          60.4917   87.2319   11.5026 O.2     1  UNL1       -0.2700
     22 N          62.7496   85.9601   11.3163 N.am    1  UNL1       -0.2967
     23 H          63.7340   85.9672   11.3083 H       1  UNL1        0.1501
     24 C          62.0076   84.6666   11.1543 C.3     1  UNL1        0.1188
     25 C          62.4134   83.4641   11.9538 C.ar    1  UNL1        0.0251
     26 C          62.7491   82.1787   11.2573 C.ar    1  UNL1        0.0019
     27 C          63.1549   80.9761   12.0569 C.ar    1  UNL1        0.0295
     28 C          63.2250   81.0590   13.5529 C.ar    1  UNL1        0.1424
     29 F          63.6308   79.8564   14.3525 F       1  UNL1       -0.2041
     30 C          62.8893   82.3443   14.2494 C.ar    1  UNL1        0.0590
     31 C          62.4835   83.5469   13.4499 C.ar    1  UNL1        0.1400
     32 F          62.1479   84.8322   14.1465 F       1  UNL1       -0.2044
@<TRIPOS>BOND
     1     2     1    1
     2     2     3    1
     3     3     4    1
     4     4     5    1
     5     5     6    1
     6     6     7    1
     7     7     8    1
     8     8     9   ar
     9     9    10   ar
    10    10    20    1
    11    20    21    2
    12    20    22   am
    13    22    24    1
    14    24    25    1
    15    25    26   ar
    16    26    27   ar
    17    27    28   ar
    18    28    29    1
    19    28    30   ar
    20    30    31   ar
    21    31    32    1
    22    10    11   ar
    23    11    12    2
    24    11    13   ar
    25    13    14    1
    26    13    15   ar
    27    15    16    1
    28    16    17    2
    29    16    18   am
    30    18     2    1
    31    18     6    1
    32    15     8   ar
    33    31    25   ar
    34    22    23    1
    35    14    19    1
@<TRIPOS>MOLECULE
*****
 32 35 0 0 0
SMALL
GASTEIGER

@<TRIPOS>ATOM
      1 C          61.9830   82.6329   11.6196 C.3     1  UNL1        0.0217
      2 C          62.7577   82.9705   12.8589 C.3     1  UNL1        0.0804
      3 C          63.1379   81.8871   13.8241 C.3     1  UNL1        0.0520
      4 C          63.9125   82.2247   15.0635 C.3     1  UNL1        0.1458
      5 O          64.3070   83.6456   15.3376 O.3     1  UNL1       -0.3359
      6 C          63.9269   84.7290   14.3724 C.3     1  UNL1        0.2175
      7 C          64.3214   86.1501   14.6465 C.3     1  UNL1        0.1572
      8 N          63.9412   87.2335   13.6813 N.ar    1  UNL1       -0.3156
      9 C          64.3357   88.6545   13.9554 C.ar    1  UNL1        0.0840
     10 C          63.9556   89.7379   12.9902 C.ar    1  UNL1        0.1125
     11 C          63.1809   89.4004   11.7508 C.ar    1  UNL1        0.2364
     12 O          62.8008   90.4838   10.7856 O.2     1  UNL1       -0.2831
     13 C          62.7864   87.9794   11.4767 C.ar    1  UNL1        0.1936
     14 O          62.0117   87.6419   10.2374 O.3     1  UNL1       -0.5017
     15 C          63.1666   86.8959   12.4419 C.ar    1  UNL1        0.1517
     16 C          62.7721   85.4750   12.1678 C.2     1  UNL1        0.2697
     17 O          61.9974   85.1374   10.9285 O.2     1  UNL1       -0.2681
     18 N          63.1522   84.3915   13.1330 N.am    1  UNL1       -0.2528
     19 H          61.7743   88.3186    9.6344 H       1  UNL1        0.2924
     20 C          64.3501   91.1589   13.2643 C.2     1  UNL1        0.2508
     21 O          63.8854   91.8376   14.5186 O.2     1  UNL1       -0.2700
     22 N          65.2093   91.9012   12.2841 N.am    1  UNL1       -0.2967
     23 H          65.5143   91.4557   11.4608 H       1  UNL1        0.1501
     24 C          65.6038   93.3221   12.5582 C.3     1  UNL1        0.1188
     25 C          66.1216   94.1847   11.4456 C.ar    1  UNL1        0.0251
     26 C          65.8011   95.6498   11.4212 C.ar    1  UNL1        0.0019
     27 C          66.3189   96.5124   10.3085 C.ar    1  UNL1        0.0295
     28 C          67.1572   95.9098    9.2203 C.ar    1  UNL1        0.1424
     29 F          67.6750   96.7723    8.1077 F       1  UNL1       -0.2041
     30 C          67.4776   94.4446    9.2447 C.ar    1  UNL1        0.0590
     31 C          66.9599   93.5821   10.3573 C.ar    1  UNL1        0.1400
     32 F          67.2803   92.1169   10.3817 F       1  UNL1       -0.2044
@<TRIPOS>BOND
     1     2     1    1
     2     2     3    1
     3     3     4    1
     4     4     5    1
     5     5     6    1
     6     6     7    1
     7     7     8    1
     8     8     9   ar
     9     9    10   ar
    10    10    20    1
    11    20    21    2
    12    20    22   am
    13    22    24    1
    14    24    25    1
    15    25    26   ar
    16    26    27   ar
    17    27    28   ar
    18    28    29    1
    19    28    30   ar
    20    30    31   ar
    21    31    32    1
    22    10    11   ar
    23    11    12    2
    24    11    13   ar
    25    13    14    1
    26    13    15   ar
    27    15    16    1
    28    16    17    2
    29    16    18   am
    30    18     2    1
    31    18     6    1
    32    15     8   ar
    33    31    25   ar
    34    22    23    1
    35    14    19    1
@<TRIPOS>MOLECULE
*****
 32 35 0 0 0
SMALL
GASTEIGER

@<TRIPOS>ATOM
      1 C          62.2323   80.6234   14.1808 C.3     1  UNL1        0.0217
      2 C          62.6899   81.4198   12.9949 C.3     1  UNL1        0.0804
      3 C          62.8408   80.7557   11.6585 C.3     1  UNL1        0.0520
      4 C          63.2983   81.5521   10.4726 C.3     1  UNL1        0.1458
      5 O          63.6050   83.0127   10.6231 O.3     1  UNL1       -0.3359
      6 C          63.4540   83.6768   11.9596 C.3     1  UNL1        0.2175
      7 C          63.7606   85.1374   12.1102 C.3     1  UNL1        0.1572
      8 N          63.6097   85.8016   13.4466 N.ar    1  UNL1       -0.3156
      9 C          63.9163   87.2622   13.5972 C.ar    1  UNL1        0.0840
     10 C          63.7654   87.9263   14.9336 C.ar    1  UNL1        0.1125
     11 C          63.3079   87.1299   16.1195 C.ar    1  UNL1        0.2364
     12 O          63.1569   87.7940   17.4559 O.2     1  UNL1       -0.2831
     13 C          63.0012   85.6693   15.9690 C.ar    1  UNL1        0.1936
     14 O          62.5437   84.8729   17.1549 O.3     1  UNL1       -0.5017
     15 C          63.1522   85.0051   14.6325 C.ar    1  UNL1        0.1517
     16 C          62.8456   83.5446   14.4819 C.2     1  UNL1        0.2697
     17 O          62.3880   82.7481   15.6678 O.2     1  UNL1       -0.2681
     18 N          62.9965   82.8804   13.1455 N.am    1  UNL1       -0.2528
     19 H          62.4494   85.2878   17.9897 H       1  UNL1        0.2924
     20 C          64.0720   89.3869   15.0842 C.2     1  UNL1        0.2508
     21 O          63.1359   90.2748   15.8493 O.2     1  UNL1       -0.2700
     22 N          65.3148   89.9596   14.4696 N.am    1  UNL1       -0.2967
     23 H          65.9291   89.3769   13.9674 H       1  UNL1        0.1501
     24 C          65.6214   91.4202   14.6201 C.3     1  UNL1        0.1188
     25 C          65.6789   92.3031   13.4089 C.ar    1  UNL1        0.0251
     26 C          65.0321   91.8635   12.1289 C.ar    1  UNL1        0.0019
     27 C          65.0896   92.7466   10.9177 C.ar    1  UNL1        0.0295
     28 C          65.7940   94.0691   10.9865 C.ar    1  UNL1        0.1424
     29 F          65.8515   94.9521    9.7752 F       1  UNL1       -0.2041
     30 C          66.4408   94.5087   12.2665 C.ar    1  UNL1        0.0590
     31 C          66.3833   93.6257   13.4777 C.ar    1  UNL1        0.1400
     32 F          67.0301   94.0653   14.7577 F       1  UNL1       -0.2044
@<TRIPOS>BOND
     1     2     1    1
     2     2     3    1
     3     3     4    1
     4     4     5    1
     5     5     6    1
     6     6     7    1
     7     7     8    1
     8     8     9   ar
     9     9    10   ar
    10    10    20    1
    11    20    21    2
    12    20    22   am
    13    22    24    1
    14    24    25    1
    15    25    26   ar
    16    26    27   ar
    17    27    28   ar
    18    28    29    1
    19    28    30   ar
    20    30    31   ar
    21    31    32    1
    22    10    11   ar
    23    11    12    2
    24    11    13   ar
    25    13    14    1
    26    13    15   ar
    27    15    16    1
    28    16    17    2
    29    16    18   am
    30    18     2    1
    31    18     6    1
    32    15     8   ar
    33    31    25   ar
    34    22    23    1
    35    14    19    1
@<TRIPOS>MOLECULE
*****
 32 35 0 0 0
SMALL
GASTEIGER

@<TRIPOS>ATOM
      1 C          62.5063   80.1994   13.8881 C.3     1  UNL1        0.0217
      2 C          62.8530   81.0494   12.7018 C.3     1  UNL1        0.0804
      3 C          62.9748   80.4263   11.3428 C.3     1  UNL1        0.0520
      4 C          63.3215   81.2762   10.1564 C.3     1  UNL1        0.1458
      5 O          63.5465   82.7492   10.3291 O.3     1  UNL1       -0.3359
      6 C          63.4247   83.3722   11.6881 C.3     1  UNL1        0.2175
      7 C          63.6496   84.8452   11.8608 C.3     1  UNL1        0.1572
      8 N          63.5278   85.4682   13.2198 N.ar    1  UNL1       -0.3156
      9 C          63.7527   86.9412   13.3925 C.ar    1  UNL1        0.0840
     10 C          63.6310   87.5642   14.7516 C.ar    1  UNL1        0.1125
     11 C          63.2842   86.7143   15.9379 C.ar    1  UNL1        0.2364
     12 O          63.1624   87.3373   17.2969 O.2     1  UNL1       -0.2831
     13 C          63.0593   85.2414   15.7653 C.ar    1  UNL1        0.1936
     14 O          62.7126   84.3915   16.9516 O.3     1  UNL1       -0.5017
     15 C          63.1811   84.6183   14.4062 C.ar    1  UNL1        0.1517
     16 C          62.9562   83.1454   14.2335 C.2     1  UNL1        0.2697
     17 O          62.6094   82.2955   15.4199 O.2     1  UNL1       -0.2681
     18 N          63.0779   82.5223   12.8745 N.am    1  UNL1       -0.2528
     19 H          62.6365   84.7807   17.8006 H       1  UNL1        0.2924
     20 C          63.8559   89.0371   14.9242 C.2     1  UNL1        0.2508
     21 O          63.5817   89.6877   16.2477 O.2     1  UNL1       -0.2700
     22 N          64.3551   89.8596   13.7733 N.am    1  UNL1       -0.2967
     23 H          64.5350   89.4327   12.9047 H       1  UNL1        0.1501
     24 C          64.5800   91.3325   13.9460 C.3     1  UNL1        0.1188
     25 C          65.8817   91.8327   14.4985 C.ar    1  UNL1        0.0251
     26 C          67.1304   91.7452   13.6719 C.ar    1  UNL1        0.0019
     27 C          68.4322   92.2454   14.2245 C.ar    1  UNL1        0.0295
     28 C          68.4852   92.8331   15.6035 C.ar    1  UNL1        0.1424
     29 F          69.7870   93.3333   16.1561 F       1  UNL1       -0.2041
     30 C          67.2366   92.9206   16.4300 C.ar    1  UNL1        0.0590
     31 C          65.9348   92.4204   15.8776 C.ar    1  UNL1        0.1400
     32 F          64.6862   92.5080   16.7041 F       1  UNL1       -0.2044
@<TRIPOS>BOND
     1     2     1    1
     2     2     3    1
     3     3     4    1
     4     4     5    1
     5     5     6    1
     6     6     7    1
     7     7     8    1
     8     8     9   ar
     9     9    10   ar
    10    10    20    1
    11    20    21    2
    12    20    22   am
    13    22    24    1
    14    24    25    1
    15    25    26   ar
    16    26    27   ar
    17    27    28   ar
    18    28    29    1
    19    28    30   ar
    20    30    31   ar
    21    31    32    1
    22    10    11   ar
    23    11    12    2
    24    11    13   ar
    25    13    14    1
    26    13    15   ar
    27    15    16    1
    28    16    17    2
    29    16    18   am
    30    18     2    1
    31    18     6    1
    32    15     8   ar
    33    31    25   ar
    34    22    23    1
    35    14    19    1
@<TRIPOS>MOLECULE
*****
 32 35 0 0 0
SMALL
GASTEIGER

@<TRIPOS>ATOM
      1 C          64.5506   86.9393   14.9375 C.3     1  UNL1        0.0217
      2 C          64.3234   88.3703   14.5495 C.3     1  UNL1        0.0804
      3 C          64.8996   89.4746   15.3853 C.3     1  UNL1        0.0520
      4 C          64.6724   90.9056   14.9972 C.3     1  UNL1        0.1458
      5 O          63.8691   91.2324   13.7734 O.3     1  UNL1       -0.3359
      6 C          63.2929   90.1281   12.9376 C.3     1  UNL1        0.2175
      7 C          62.4895   90.4548   11.7137 C.3     1  UNL1        0.1572
      8 N          61.9134   89.3506   10.8779 N.ar    1  UNL1       -0.3156
      9 C          61.1100   89.6773    9.6539 C.ar    1  UNL1        0.0840
     10 C          60.5338   88.5730    8.8181 C.ar    1  UNL1        0.1125
     11 C          60.7610   87.1420    9.2062 C.ar    1  UNL1        0.2364
     12 O          60.1848   86.0378    8.3704 O.2     1  UNL1       -0.2831
     13 C          61.5643   86.8153   10.4301 C.ar    1  UNL1        0.1936
     14 O          61.7915   85.3843   10.8181 O.3     1  UNL1       -0.5017
     15 C          62.1405   87.9196   11.2659 C.ar    1  UNL1        0.1517
     16 C          62.9439   87.5928   12.4898 C.2     1  UNL1        0.2697
     17 O          63.1710   86.1618   12.8778 O.2     1  UNL1       -0.2681
     18 N          63.5201   88.6971   13.3256 N.am    1  UNL1       -0.2528
     19 H          61.4316   84.6944   10.2960 H       1  UNL1        0.2924
     20 C          59.7305   88.8998    7.5943 C.2     1  UNL1        0.2508
     21 O          58.5315   88.0707    7.2407 O.2     1  UNL1       -0.2700
     22 N          60.1262   90.0557    6.7239 N.am    1  UNL1       -0.2967
     23 H          60.9131   90.5998    6.9560 H       1  UNL1        0.1501
     24 C          59.3229   90.3824    5.5001 C.3     1  UNL1        0.1188
     25 C          59.9028   91.2668    4.4364 C.ar    1  UNL1        0.0251
     26 C          61.3819   91.2687    4.1867 C.ar    1  UNL1        0.0019
     27 C          61.9618   92.1531    3.1229 C.ar    1  UNL1        0.0295
     28 C          61.0627   93.0355    2.3089 C.ar    1  UNL1        0.1424
     29 F          61.6427   93.9199    1.2451 F       1  UNL1       -0.2041
     30 C          59.5836   93.0336    2.5585 C.ar    1  UNL1        0.0590
     31 C          59.0037   92.1493    3.6222 C.ar    1  UNL1        0.1400
     32 F          57.5246   92.1474    3.8718 F       1  UNL1       -0.2044
@<TRIPOS>BOND
     1     2     1    1
     2     2     3    1
     3     3     4    1
     4     4     5    1
     5     5     6    1
     6     6     7    1
     7     7     8    1
     8     8     9   ar
     9     9    10   ar
    10    10    20    1
    11    20    21    2
    12    20    22   am
    13    22    24    1
    14    24    25    1
    15    25    26   ar
    16    26    27   ar
    17    27    28   ar
    18    28    29    1
    19    28    30   ar
    20    30    31   ar
    21    31    32    1
    22    10    11   ar
    23    11    12    2
    24    11    13   ar
    25    13    14    1
    26    13    15   ar
    27    15    16    1
    28    16    17    2
    29    16    18   am
    30    18     2    1
    31    18     6    1
    32    15     8   ar
    33    31    25   ar
    34    22    23    1
    35    14    19    1
@<TRIPOS>MOLECULE
*****
 32 35 0 0 0
SMALL
GASTEIGER

@<TRIPOS>ATOM
      1 C          66.9334   94.6115   13.9644 C.3     1  UNL1        0.0217
      2 C          66.2923   94.5138   12.6118 C.3     1  UNL1        0.0804
      3 C          66.4178   95.6483   11.6386 C.3     1  UNL1        0.0520
      4 C          65.7768   95.5505   10.2860 C.3     1  UNL1        0.1458
      5 O          65.0102   94.3183    9.9066 O.3     1  UNL1       -0.3359
      6 C          64.8847   93.1838   10.8798 C.3     1  UNL1        0.2175
      7 C          64.1182   91.9515   10.5004 C.3     1  UNL1        0.1572
      8 N          63.9927   90.8170   11.4735 N.ar    1  UNL1       -0.3156
      9 C          63.2261   89.5847   11.0942 C.ar    1  UNL1        0.0840
     10 C          63.1006   88.4502   12.0673 C.ar    1  UNL1        0.1125
     11 C          63.7417   88.5479   13.4199 C.ar    1  UNL1        0.2364
     12 O          63.6162   87.4134   14.3931 O.2     1  UNL1       -0.2831
     13 C          64.5082   89.7802   13.7993 C.ar    1  UNL1        0.1936
     14 O          65.1492   89.8779   15.1519 O.3     1  UNL1       -0.5017
     15 C          64.6337   90.9147   12.8261 C.ar    1  UNL1        0.1517
     16 C          65.4003   92.1470   13.2056 C.2     1  UNL1        0.2697
     17 O          66.0413   92.2447   14.5582 O.2     1  UNL1       -0.2681
     18 N          65.5258   93.2815   12.2324 N.am    1  UNL1       -0.2528
     19 H          65.0708   89.1692   15.7599 H       1  UNL1        0.2924
     20 C          62.3341   87.2180   11.6879 C.2     1  UNL1        0.2508
     21 O          60.8827   87.3202   11.3231 O.2     1  UNL1       -0.2700
     22 N          63.0189   85.8835   11.6733 N.am    1  UNL1       -0.2967
     23 H          63.9715   85.8164   11.9128 H       1  UNL1        0.1501
     24 C          62.2524   84.6512   11.2939 C.3     1  UNL1        0.1188
     25 C          62.4684   83.3721   12.0469 C.ar    1  UNL1        0.0251
     26 C          62.7737   82.1060   11.3027 C.ar    1  UNL1        0.0019
     27 C          62.9897   80.8268   12.0558 C.ar    1  UNL1        0.0295
     28 C          62.9004   80.8138   13.5531 C.ar    1  UNL1        0.1424
     29 F          63.1164   79.5346   14.3062 F       1  UNL1       -0.2041
     30 C          62.5951   82.0798   14.2973 C.ar    1  UNL1        0.0590
     31 C          62.3791   83.3590   13.5443 C.ar    1  UNL1        0.1400
     32 F          62.0738   84.6250   14.2885 F       1  UNL1       -0.2044
@<TRIPOS>BOND
     1     2     1    1
     2     2     3    1
     3     3     4    1
     4     4     5    1
     5     5     6    1
     6     6     7    1
     7     7     8    1
     8     8     9   ar
     9     9    10   ar
    10    10    20    1
    11    20    21    2
    12    20    22   am
    13    22    24    1
    14    24    25    1
    15    25    26   ar
    16    26    27   ar
    17    27    28   ar
    18    28    29    1
    19    28    30   ar
    20    30    31   ar
    21    31    32    1
    22    10    11   ar
    23    11    12    2
    24    11    13   ar
    25    13    14    1
    26    13    15   ar
    27    15    16    1
    28    16    17    2
    29    16    18   am
    30    18     2    1
    31    18     6    1
    32    15     8   ar
    33    31    25   ar
    34    22    23    1
    35    14    19    1
@<TRIPOS>MOLECULE
*****
 32 35 0 0 0
SMALL
GASTEIGER

@<TRIPOS>ATOM
      1 C          65.0799   91.9885   16.6030 C.3     1  UNL1        0.0217
      2 C          65.6575   92.3087   15.2562 C.3     1  UNL1        0.0804
      3 C          66.9250   93.1043   15.1537 C.3     1  UNL1        0.0520
      4 C          67.5026   93.4245   13.8069 C.3     1  UNL1        0.1458
      5 O          66.8128   92.9491   12.5627 O.3     1  UNL1       -0.3359
      6 C          65.5454   92.1535   12.6652 C.3     1  UNL1        0.2175
      7 C          64.8555   91.6781   11.4210 C.3     1  UNL1        0.1572
      8 N          63.5881   90.8824   11.5235 N.ar    1  UNL1       -0.3156
      9 C          62.8982   90.4070   10.2793 C.ar    1  UNL1        0.0840
     10 C          61.6308   89.6114   10.3818 C.ar    1  UNL1        0.1125
     11 C          61.0532   89.2911   11.7286 C.ar    1  UNL1        0.2364
     12 O          59.7857   88.4955   11.8311 O.2     1  UNL1       -0.2831
     13 C          61.7430   89.7665   12.9728 C.ar    1  UNL1        0.1936
     14 O          61.1653   89.4463   14.3196 O.3     1  UNL1       -0.5017
     15 C          63.0105   90.5622   12.8703 C.ar    1  UNL1        0.1517
     16 C          63.7003   91.0376   14.1145 C.2     1  UNL1        0.2697
     17 O          63.1226   90.7174   15.4613 O.2     1  UNL1       -0.2681
     18 N          64.9678   91.8333   14.0120 N.am    1  UNL1       -0.2528
     19 H          60.3736   88.9493   14.3836 H       1  UNL1        0.2924
     20 C          60.9410   89.1360    9.1376 C.2     1  UNL1        0.2508
     21 O          61.0449   87.6974    8.7255 O.2     1  UNL1       -0.2700
     22 N          60.1473   90.0991    8.3054 N.am    1  UNL1       -0.2967
     23 H          60.0791   91.0433    8.5759 H       1  UNL1        0.1501
     24 C          59.4575   89.6237    7.0612 C.3     1  UNL1        0.1188
     25 C          59.4057   90.5055    5.8489 C.ar    1  UNL1        0.0251
     26 C          60.6775   90.9443    5.1857 C.ar    1  UNL1        0.0019
     27 C          60.6257   91.8261    3.9733 C.ar    1  UNL1        0.0295
     28 C          59.3020   92.2691    3.4242 C.ar    1  UNL1        0.1424
     29 F          59.2501   93.1510    2.2119 F       1  UNL1       -0.2041
     30 C          58.0301   91.8304    4.0875 C.ar    1  UNL1        0.0590
     31 C          58.0819   90.9486    5.2997 C.ar    1  UNL1        0.1400
     32 F          56.8101   90.5098    5.9630 F       1  UNL1       -0.2044
@<TRIPOS>BOND
     1     2     1    1
     2     2     3    1
     3     3     4    1
     4     4     5    1
     5     5     6    1
     6     6     7    1
     7     7     8    1
     8     8     9   ar
     9     9    10   ar
    10    10    20    1
    11    20    21    2
    12    20    22   am
    13    22    24    1
    14    24    25    1
    15    25    26   ar
    16    26    27   ar
    17    27    28   ar
    18    28    29    1
    19    28    30   ar
    20    30    31   ar
    21    31    32    1
    22    10    11   ar
    23    11    12    2
    24    11    13   ar
    25    13    14    1
    26    13    15   ar
    27    15    16    1
    28    16    17    2
    29    16    18   am
    30    18     2    1
    31    18     6    1
    32    15     8   ar
    33    31    25   ar
    34    22    23    1
    35    14    19    1
@<TRIPOS>MOLECULE
*****
 32 35 0 0 0
SMALL
GASTEIGER

@<TRIPOS>ATOM
      1 C          66.9824   96.1219   13.4184 C.3     1  UNL1        0.0217
      2 C          66.5564   95.7597   12.0266 C.3     1  UNL1        0.0804
      3 C          66.8232   96.7029   10.8912 C.3     1  UNL1        0.0520
      4 C          66.3971   96.3407    9.4993 C.3     1  UNL1        0.1458
      5 O          65.7043   95.0353    9.2428 O.3     1  UNL1       -0.3359
      6 C          65.4375   94.0921   10.3782 C.3     1  UNL1        0.2175
      7 C          64.7447   92.7866   10.1217 C.3     1  UNL1        0.1572
      8 N          64.4779   91.8434   11.2571 N.ar    1  UNL1       -0.3156
      9 C          63.7851   90.5379   11.0006 C.ar    1  UNL1        0.0840
     10 C          63.5183   89.5947   12.1360 C.ar    1  UNL1        0.1125
     11 C          63.9443   89.9569   13.5279 C.ar    1  UNL1        0.2364
     12 O          63.6775   89.0136   14.6633 O.2     1  UNL1       -0.2831
     13 C          64.6371   91.2623   13.7844 C.ar    1  UNL1        0.1936
     14 O          65.0631   91.6245   15.1763 O.3     1  UNL1       -0.5017
     15 C          64.9039   92.2056   12.6490 C.ar    1  UNL1        0.1517
     16 C          65.5968   93.5110   12.9055 C.2     1  UNL1        0.2697
     17 O          66.0228   93.8732   14.2974 O.2     1  UNL1       -0.2681
     18 N          65.8636   94.4543   11.7701 N.am    1  UNL1       -0.2528
     19 H          64.8965   91.0353   15.8855 H       1  UNL1        0.2924
     20 C          62.8255   88.2892   11.8795 C.2     1  UNL1        0.2508
     21 O          63.2071   87.0703   12.6660 O.2     1  UNL1       -0.2700
     22 N          61.7509   88.2027   10.8364 N.am    1  UNL1       -0.2967
     23 H          61.5004   89.0026   10.3202 H       1  UNL1        0.1501
     24 C          61.0581   86.8972   10.5799 C.3     1  UNL1        0.1188
     25 C          61.2559   86.1872    9.2735 C.ar    1  UNL1        0.0251
     26 C          62.5633   85.5148    8.9758 C.ar    1  UNL1        0.0019
     27 C          62.7610   84.8048    7.6693 C.ar    1  UNL1        0.0295
     28 C          61.6515   84.7672    6.6607 C.ar    1  UNL1        0.1424
     29 F          61.8492   84.0572    5.3542 F       1  UNL1       -0.2041
     30 C          60.3441   85.4396    6.9584 C.ar    1  UNL1        0.0590
     31 C          60.1463   86.1496    8.2648 C.ar    1  UNL1        0.1400
     32 F          58.8390   86.8221    8.5626 F       1  UNL1       -0.2044
@<TRIPOS>BOND
     1     2     1    1
     2     2     3    1
     3     3     4    1
     4     4     5    1
     5     5     6    1
     6     6     7    1
     7     7     8    1
     8     8     9   ar
     9     9    10   ar
    10    10    20    1
    11    20    21    2
    12    20    22   am
    13    22    24    1
    14    24    25    1
    15    25    26   ar
    16    26    27   ar
    17    27    28   ar
    18    28    29    1
    19    28    30   ar
    20    30    31   ar
    21    31    32    1
    22    10    11   ar
    23    11    12    2
    24    11    13   ar
    25    13    14    1
    26    13    15   ar
    27    15    16    1
    28    16    17    2
    29    16    18   am
    30    18     2    1
    31    18     6    1
    32    15     8   ar
    33    31    25   ar
    34    22    23    1
    35    14    19    1
@<TRIPOS>MOLECULE
*****
 32 35 0 0 0
SMALL
GASTEIGER

@<TRIPOS>ATOM
      1 C          66.9924   96.4245   13.0195 C.3     1  UNL1        0.0217
      2 C          66.5685   95.8838   11.6861 C.3     1  UNL1        0.0804
      3 C          66.7881   96.6951   10.4437 C.3     1  UNL1        0.0520
      4 C          66.3642   96.1544    9.1102 C.3     1  UNL1        0.1458
      5 O          65.7206   94.8026    9.0193 O.3     1  UNL1       -0.3359
      6 C          65.5011   93.9914   10.2617 C.3     1  UNL1        0.2175
      7 C          64.8575   92.6394   10.1707 C.3     1  UNL1        0.1572
      8 N          64.6379   91.8282   11.4132 N.ar    1  UNL1       -0.3156
      9 C          63.9944   90.4763   11.3222 C.ar    1  UNL1        0.0840
     10 C          63.7748   89.6650   12.5646 C.ar    1  UNL1        0.1125
     11 C          64.1987   90.2057   13.8980 C.ar    1  UNL1        0.2364
     12 O          63.9792   89.3945   15.1405 O.2     1  UNL1       -0.2831
     13 C          64.8422   91.5575   13.9890 C.ar    1  UNL1        0.1936
     14 O          65.2662   92.0982   15.3224 O.3     1  UNL1       -0.5017
     15 C          65.0619   92.3688   12.7466 C.ar    1  UNL1        0.1517
     16 C          65.7054   93.7207   12.8376 C.2     1  UNL1        0.2697
     17 O          66.1293   94.2613   14.1710 O.2     1  UNL1       -0.2681
     18 N          65.9250   94.5320   11.5951 N.am    1  UNL1       -0.2528
     19 H          65.1290   91.5914   16.0986 H       1  UNL1        0.2924
     20 C          63.1313   88.3132   12.4736 C.2     1  UNL1        0.2508
     21 O          63.6012   87.1977   13.3596 O.2     1  UNL1       -0.2700
     22 N          62.0178   88.0768   11.4967 N.am    1  UNL1       -0.2967
     23 H          61.7094   88.8089   10.9152 H       1  UNL1        0.1501
     24 C          61.3743   86.7249   11.4057 C.3     1  UNL1        0.1188
     25 C          62.1916   85.5302   11.0127 C.ar    1  UNL1        0.0251
     26 C          62.4900   84.4608   12.0214 C.ar    1  UNL1        0.0019
     27 C          63.3074   83.2661   11.6283 C.ar    1  UNL1        0.0295
     28 C          63.8263   83.1407   10.2266 C.ar    1  UNL1        0.1424
     29 F          64.6437   81.9459    9.8335 F       1  UNL1       -0.2041
     30 C          63.5280   84.2100    9.2179 C.ar    1  UNL1        0.0590
     31 C          62.7106   85.4048    9.6109 C.ar    1  UNL1        0.1400
     32 F          62.4123   86.4741    8.6022 F       1  UNL1       -0.2044
@<TRIPOS>BOND
     1     2     1    1
     2     2     3    1
     3     3     4    1
     4     4     5    1
     5     5     6    1
     6     6     7    1
     7     7     8    1
     8     8     9   ar
     9     9    10   ar
    10    10    20    1
    11    20    21    2
    12    20    22   am
    13    22    24    1
    14    24    25    1
    15    25    26   ar
    16    26    27   ar
    17    27    28   ar
    18    28    29    1
    19    28    30   ar
    20    30    31   ar
    21    31    32    1
    22    10    11   ar
    23    11    12    2
    24    11    13   ar
    25    13    14    1
    26    13    15   ar
    27    15    16    1
    28    16    17    2
    29    16    18   am
    30    18     2    1
    31    18     6    1
    32    15     8   ar
    33    31    25   ar
    34    22    23    1
    35    14    19    1
