@<TRIPOS>MOLECULE
*****
 37 40 0 0 0
SMALL
GASTEIGER

@<TRIPOS>ATOM
      1 N          63.3673   85.9318   13.8780 N.am    1  UNL1       -0.2463
      2 C          63.3161   85.2524   15.2143 C.2     1  UNL1        0.2869
      3 O          63.6594   85.8764   16.5344 O.2     1  UNL1       -0.2662
      4 C          62.8613   83.8393   14.9988 C.2     1  UNL1        0.1887
      5 O          62.6700   82.8023   16.0655 O.2     1  UNL1       -0.5020
      6 C          62.6315   83.6454   13.5292 C.2     1  UNL1        0.0732
      7 C          62.9442   84.9387   12.8365 C.3     1  UNL1        0.1338
      8 H          62.8391   83.0156   16.9621 H       1  UNL1        0.2924
      9 C          64.5778   90.2001   13.1255 C.ar    1  UNL1        0.0373
     10 C          63.7547   89.4639   12.1104 C.ar    1  UNL1        0.0044
     11 C          63.3512   88.0412   12.3612 C.ar    1  UNL1        0.0150
     12 C          63.7708   87.3546   13.6272 C.ar    1  UNL1        0.0548
     13 C          64.5939   88.0908   14.6423 C.ar    1  UNL1        0.0150
     14 C          64.9974   89.5136   14.3914 C.ar    1  UNL1        0.0044
     15 C          65.7379   94.7347   10.6815 C.3     1  UNL1        0.0557
     16 C          65.5145   93.7072   11.7512 C.ar    1  UNL1        0.1011
     17 C          65.0766   92.2891   11.5341 C.ar    1  UNL1        0.0581
     18 C          64.9813   91.6229   12.8747 C.ar    1  UNL1        0.1765
     19 O          65.3603   92.6293   13.9204 O.2     1  UNL1       -0.3537
     20 N          65.6899   93.9175   13.2261 N.ar    1  UNL1       -0.0813
     21 C          62.8503   85.1939   11.3614 C.ar    1  UNL1        0.0344
     22 C          63.7801   84.4904   10.4178 C.ar    1  UNL1        0.0007
     23 C          63.6862   84.7457    8.9427 C.ar    1  UNL1       -0.0001
     24 C          62.6624   85.7044    8.4111 C.ar    1  UNL1        0.0031
     25 C          61.7325   86.4079    9.3548 C.ar    1  UNL1        0.0366
     26 C          61.8264   86.1527   10.8299 C.ar    1  UNL1        0.1365
     27 O          60.8966   86.8561   11.7734 O.3     1  UNL1       -0.4730
     28 C          59.9072   87.8534   11.2473 C.3     1  UNL1        0.2370
     29 C          60.0666   89.3096   11.5694 C.3     1  UNL1        0.1847
     30 O          60.2994   89.7432   12.9864 O.3     1  UNL1       -0.3784
     31 H          59.5133   89.5444   13.5187 H       1  UNL1        0.2106
     32 C          62.1700   82.3804   12.8683 C.2     1  UNL1        0.1732
     33 O          61.4896   82.4370   11.5327 O.2     1  UNL1       -0.2915
     34 C          62.3888   81.0588   13.5431 C.3     1  UNL1        0.0554
     35 C          60.9408   81.0178   13.9325 C.3     1  UNL1        0.0077
     36 C          63.8368   81.0997   13.1537 C.3     1  UNL1        0.0077
     37 C          62.6076   79.7371   14.2178 C.3     1  UNL1        0.0077
@<TRIPOS>BOND
     1    15    16    1
     2    16    17   ar
     3    17    18   ar
     4    18     9    1
     5     9    10   ar
     6    10    11   ar
     7    11    12   ar
     8    12     1    1
     9     1     2   am
    10     2     3    2
    11     2     4    1
    12     4     5    1
    13     4     6    2
    14     6    32    1
    15    32    33    2
    16    32    34    1
    17    34    35    1
    18    34    36    1
    19    34    37    1
    20     6     7    1
    21     7    21    1
    22    21    22   ar
    23    22    23   ar
    24    23    24   ar
    25    24    25   ar
    26    25    26   ar
    27    26    27    1
    28    27    28    1
    29    28    29    1
    30    29    30    1
    31    12    13   ar
    32    13    14   ar
    33    18    19   ar
    34    19    20   ar
    35    20    16   ar
    36    14     9   ar
    37     7     1    1
    38    26    21   ar
    39     5     8    1
    40    30    31    1
@<TRIPOS>MOLECULE
*****
 37 40 0 0 0
SMALL
GASTEIGER

@<TRIPOS>ATOM
      1 N          63.4146   86.7967   12.8817 N.am    1  UNL1       -0.2463
      2 C          64.2331   87.4725   13.9415 C.2     1  UNL1        0.2869
      3 O          65.0288   86.7866   15.0122 O.2     1  UNL1       -0.2662
      4 C          64.1162   88.9547   13.7428 C.2     1  UNL1        0.1887
      5 O          64.7745   90.0111   14.5798 O.2     1  UNL1       -0.5020
      6 C          63.2254   89.1949   12.5600 C.2     1  UNL1        0.0732
      7 C          62.7918   87.8612   12.0279 C.3     1  UNL1        0.1338
      8 H          65.3170   89.7652   15.3031 H       1  UNL1        0.2924
      9 C          62.9150   82.3555   12.3560 C.ar    1  UNL1        0.0373
     10 C          62.5811   82.9975   13.6699 C.ar    1  UNL1        0.0044
     11 C          62.7477   84.4778   13.8451 C.ar    1  UNL1        0.0150
     12 C          63.2481   85.3163   12.7064 C.ar    1  UNL1        0.0548
     13 C          63.5820   84.6743   11.3925 C.ar    1  UNL1        0.0150
     14 C          63.4154   83.1940   11.2173 C.ar    1  UNL1        0.0044
     15 C          62.8434   77.5285   10.2168 C.3     1  UNL1        0.0557
     16 C          62.7156   78.6564   11.1974 C.ar    1  UNL1        0.1011
     17 C          63.0119   80.1010   10.9232 C.ar    1  UNL1        0.0581
     18 C          62.7485   80.8751   12.1808 C.ar    1  UNL1        0.1765
     19 O          62.2894   79.9089   13.2322 O.2     1  UNL1       -0.3537
     20 N          62.2691   78.5376   12.6246 N.ar    1  UNL1       -0.0813
     21 C          61.8932   87.6322   10.8489 C.ar    1  UNL1        0.0344
     22 C          62.4596   87.0989    9.5664 C.ar    1  UNL1        0.0007
     23 C          61.5610   86.8700    8.3874 C.ar    1  UNL1       -0.0001
     24 C          60.0958   87.1744    8.4909 C.ar    1  UNL1        0.0031
     25 C          59.5294   87.7077    9.7734 C.ar    1  UNL1        0.0366
     26 C          60.4280   87.9366   10.9524 C.ar    1  UNL1        0.1365
     27 O          59.8615   88.4699   12.2347 O.3     1  UNL1       -0.4730
     28 C          58.4597   89.0025   12.2713 C.3     1  UNL1        0.2370
     29 C          57.5353   88.6054   13.3838 C.3     1  UNL1        0.1847
     30 O          56.1134   88.2354   13.0814 O.3     1  UNL1       -0.3784
     31 H          55.6406   89.0139   12.7477 H       1  UNL1        0.2106
     32 C          62.8366   90.5338   12.0066 C.2     1  UNL1        0.1732
     33 O          61.4374   91.0429   12.1886 O.2     1  UNL1       -0.2915
     34 C          63.8469   91.3635   11.2712 C.3     1  UNL1        0.0554
     35 C          64.4525   91.7839   12.5776 C.3     1  UNL1        0.0077
     36 C          63.2413   90.9432    9.9649 C.3     1  UNL1        0.0077
     37 C          64.8572   92.1933   10.5359 C.3     1  UNL1        0.0077
@<TRIPOS>BOND
     1    15    16    1
     2    16    17   ar
     3    17    18   ar
     4    18     9    1
     5     9    10   ar
     6    10    11   ar
     7    11    12   ar
     8    12     1    1
     9     1     2   am
    10     2     3    2
    11     2     4    1
    12     4     5    1
    13     4     6    2
    14     6    32    1
    15    32    33    2
    16    32    34    1
    17    34    35    1
    18    34    36    1
    19    34    37    1
    20     6     7    1
    21     7    21    1
    22    21    22   ar
    23    22    23   ar
    24    23    24   ar
    25    24    25   ar
    26    25    26   ar
    27    26    27    1
    28    27    28    1
    29    28    29    1
    30    29    30    1
    31    12    13   ar
    32    13    14   ar
    33    18    19   ar
    34    19    20   ar
    35    20    16   ar
    36    14     9   ar
    37     7     1    1
    38    26    21   ar
    39     5     8    1
    40    30    31    1
@<TRIPOS>MOLECULE
*****
 37 40 0 0 0
SMALL
GASTEIGER

@<TRIPOS>ATOM
      1 N          61.3663   94.4360   -2.5369 N.am    1  UNL1       -0.2463
      2 C          62.3807   93.9964   -3.5507 C.2     1  UNL1        0.2869
      3 O          62.1201   93.7423   -5.0059 O.2     1  UNL1       -0.2662
      4 C          63.7015   93.8555   -2.8539 C.2     1  UNL1        0.1887
      5 O          64.9936   93.4357   -3.4898 O.2     1  UNL1       -0.5020
      6 C          63.5034   94.2080   -1.4094 C.2     1  UNL1        0.0732
      7 C          62.0602   94.5668   -1.2135 C.3     1  UNL1        0.1338
      8 H          65.0217   93.2338   -4.4044 H       1  UNL1        0.2924
      9 C          57.0070   95.2242   -3.3272 C.ar    1  UNL1        0.0373
     10 C          57.9695   96.3699   -3.2238 C.ar    1  UNL1        0.0044
     11 C          59.4226   96.1072   -2.9604 C.ar    1  UNL1        0.0150
     12 C          59.9131   94.6987   -2.8004 C.ar    1  UNL1        0.0548
     13 C          58.9506   93.5530   -2.9038 C.ar    1  UNL1        0.0150
     14 C          57.4975   93.8157   -3.1672 C.ar    1  UNL1        0.0044
     15 C          51.8531   96.1157   -2.6032 C.3     1  UNL1        0.0557
     16 C          53.1848   95.8967   -3.2578 C.ar    1  UNL1        0.1011
     17 C          54.4847   95.6502   -2.5511 C.ar    1  UNL1        0.0581
     18 C          55.5538   95.4869   -3.5906 C.ar    1  UNL1        0.1765
     19 O          54.9145   95.6324   -4.9398 O.2     1  UNL1       -0.3537
     20 N          53.4504   95.8856   -4.7341 N.ar    1  UNL1       -0.0813
     21 C          61.4228   94.9833    0.0788 C.ar    1  UNL1        0.0344
     22 C          61.2478   96.4393    0.3940 C.ar    1  UNL1        0.0007
     23 C          60.6104   96.8557    1.6863 C.ar    1  UNL1       -0.0001
     24 C          60.1479   95.8161    2.6637 C.ar    1  UNL1        0.0031
     25 C          60.3229   94.3600    2.3486 C.ar    1  UNL1        0.0366
     26 C          60.9603   93.9435    1.0562 C.ar    1  UNL1        0.1365
     27 O          61.1352   92.4876    0.7412 O.3     1  UNL1       -0.4730
     28 C          62.2831   91.7247    1.3333 C.3     1  UNL1        0.2370
     29 C          62.7137   91.9932    2.7447 C.3     1  UNL1        0.1847
     30 O          63.9221   91.3029    3.3045 O.3     1  UNL1       -0.3784
     31 H          63.7508   90.3501    3.3656 H       1  UNL1        0.2106
     32 C          64.5626   94.2027   -0.3472 C.2     1  UNL1        0.1732
     33 O          65.2196   92.9142    0.0504 O.2     1  UNL1       -0.2915
     34 C          64.9648   95.4859    0.3173 C.3     1  UNL1        0.0554
     35 C          65.3487   96.0560   -1.0160 C.3     1  UNL1        0.0077
     36 C          64.5810   94.9158    1.6505 C.3     1  UNL1        0.0077
     37 C          65.3671   96.7691    0.9818 C.3     1  UNL1        0.0077
@<TRIPOS>BOND
     1    15    16    1
     2    16    17   ar
     3    17    18   ar
     4    18     9    1
     5     9    10   ar
     6    10    11   ar
     7    11    12   ar
     8    12     1    1
     9     1     2   am
    10     2     3    2
    11     2     4    1
    12     4     5    1
    13     4     6    2
    14     6    32    1
    15    32    33    2
    16    32    34    1
    17    34    35    1
    18    34    36    1
    19    34    37    1
    20     6     7    1
    21     7    21    1
    22    21    22   ar
    23    22    23   ar
    24    23    24   ar
    25    24    25   ar
    26    25    26   ar
    27    26    27    1
    28    27    28    1
    29    28    29    1
    30    29    30    1
    31    12    13   ar
    32    13    14   ar
    33    18    19   ar
    34    19    20   ar
    35    20    16   ar
    36    14     9   ar
    37     7     1    1
    38    26    21   ar
    39     5     8    1
    40    30    31    1
@<TRIPOS>MOLECULE
*****
 37 40 0 0 0
SMALL
GASTEIGER

@<TRIPOS>ATOM
      1 N          61.5407   95.6935   -2.8029 N.am    1  UNL1       -0.2463
      2 C          62.5935   95.6907   -3.8714 C.2     1  UNL1        0.2869
      3 O          62.3488   95.7432   -5.3504 O.2     1  UNL1       -0.2662
      4 C          63.9339   95.6261   -3.2013 C.2     1  UNL1        0.1887
      5 O          65.2650   95.6027   -3.8925 O.2     1  UNL1       -0.5020
      6 C          63.7096   95.5890   -1.7186 C.2     1  UNL1        0.0732
      7 C          62.2305   95.6307   -1.4724 C.3     1  UNL1        0.1338
      8 H          65.3076   95.6294   -4.8282 H       1  UNL1        0.2924
      9 C          57.0939   95.8611   -3.4717 C.ar    1  UNL1        0.0373
     10 C          57.9185   94.8205   -4.1695 C.ar    1  UNL1        0.0044
     11 C          59.4008   94.7646   -3.9466 C.ar    1  UNL1        0.0150
     12 C          60.0584   95.7494   -3.0258 C.ar    1  UNL1        0.0548
     13 C          59.2337   96.7900   -2.3280 C.ar    1  UNL1        0.0150
     14 C          57.7515   96.8459   -2.5509 C.ar    1  UNL1        0.0044
     15 C          51.8910   96.1074   -2.6050 C.3     1  UNL1        0.0557
     16 C          53.2201   96.0302   -3.2962 C.ar    1  UNL1        0.1011
     17 C          54.5616   95.9939   -2.6261 C.ar    1  UNL1        0.0581
     18 C          55.6115   95.9170   -3.6946 C.ar    1  UNL1        0.1765
     19 O          54.9190   95.9058   -5.0251 O.2     1  UNL1       -0.3537
     20 N          53.4410   95.9757   -4.7789 N.ar    1  UNL1       -0.0813
     21 C          61.5592   95.6127   -0.1312 C.ar    1  UNL1        0.0344
     22 C          61.5250   96.8559    0.7073 C.ar    1  UNL1        0.0007
     23 C          60.8537   96.8379    2.0485 C.ar    1  UNL1       -0.0001
     24 C          60.2164   95.5766    2.5513 C.ar    1  UNL1        0.0031
     25 C          60.2505   94.3332    1.7128 C.ar    1  UNL1        0.0366
     26 C          60.9219   94.3512    0.3716 C.ar    1  UNL1        0.1365
     27 O          60.9559   93.1080   -0.4668 O.3     1  UNL1       -0.4730
     28 C          59.7694   92.1907   -0.4967 C.3     1  UNL1        0.2370
     29 C          58.4729   92.6604   -1.0867 C.3     1  UNL1        0.1847
     30 O          57.1788   92.3565   -0.3918 O.3     1  UNL1       -0.3784
     31 H          57.0238   91.3990   -0.4011 H       1  UNL1        0.2106
     32 C          64.7769   95.5220   -0.6668 C.2     1  UNL1        0.1732
     33 O          66.0362   96.3216   -0.8241 O.2     1  UNL1       -0.2915
     34 C          64.5850   94.6553    0.5423 C.3     1  UNL1        0.0554
     35 C          64.7329   95.8573    1.4273 C.3     1  UNL1        0.0077
     36 C          64.4371   93.4533   -0.3427 C.3     1  UNL1        0.0077
     37 C          64.3931   93.7887    1.7515 C.3     1  UNL1        0.0077
@<TRIPOS>BOND
     1    15    16    1
     2    16    17   ar
     3    17    18   ar
     4    18     9    1
     5     9    10   ar
     6    10    11   ar
     7    11    12   ar
     8    12     1    1
     9     1     2   am
    10     2     3    2
    11     2     4    1
    12     4     5    1
    13     4     6    2
    14     6    32    1
    15    32    33    2
    16    32    34    1
    17    34    35    1
    18    34    36    1
    19    34    37    1
    20     6     7    1
    21     7    21    1
    22    21    22   ar
    23    22    23   ar
    24    23    24   ar
    25    24    25   ar
    26    25    26   ar
    27    26    27    1
    28    27    28    1
    29    28    29    1
    30    29    30    1
    31    12    13   ar
    32    13    14   ar
    33    18    19   ar
    34    19    20   ar
    35    20    16   ar
    36    14     9   ar
    37     7     1    1
    38    26    21   ar
    39     5     8    1
    40    30    31    1
@<TRIPOS>MOLECULE
*****
 37 40 0 0 0
SMALL
GASTEIGER

@<TRIPOS>ATOM
      1 N          59.5119   94.1565   -0.4899 N.am    1  UNL1       -0.2463
      2 C          59.8564   93.5128    0.8204 C.2     1  UNL1        0.2869
      3 O          58.8826   93.1086    1.8872 O.2     1  UNL1       -0.2662
      4 C          61.3459   93.3441    0.8766 C.2     1  UNL1        0.1887
      5 O          62.1229   92.7418    2.0094 O.2     1  UNL1       -0.5020
      6 C          61.9218   93.8837   -0.3991 C.2     1  UNL1        0.0732
      7 C          60.7884   94.3857   -1.2436 C.3     1  UNL1        0.1338
      8 H          61.6750   92.4296    2.7710 H       1  UNL1        0.2924
      9 C          55.3750   95.2141   -1.9104 C.ar    1  UNL1        0.0373
     10 C          55.7260   93.7848   -1.6208 C.ar    1  UNL1        0.0044
     11 C          57.1049   93.4323   -1.1474 C.ar    1  UNL1        0.0150
     12 C          58.1329   94.5091   -0.9634 C.ar    1  UNL1        0.0548
     13 C          57.7820   95.9384   -1.2530 C.ar    1  UNL1        0.0150
     14 C          56.4030   96.2909   -1.7265 C.ar    1  UNL1        0.0044
     15 C          51.3394   96.6469   -4.9994 C.3     1  UNL1        0.0557
     16 C          52.1411   96.2253   -3.8038 C.ar    1  UNL1        0.1011
     17 C          53.6176   95.9616   -3.7806 C.ar    1  UNL1        0.0581
     18 C          53.9961   95.5667   -2.3839 C.ar    1  UNL1        0.1765
     19 O          52.7535   95.5863   -1.5439 O.2     1  UNL1       -0.3537
     20 N          51.6071   95.9933   -2.4214 N.ar    1  UNL1       -0.0813
     21 C          60.9101   95.0078   -2.6031 C.ar    1  UNL1        0.0344
     22 C          61.7552   96.2321   -2.7948 C.ar    1  UNL1        0.0007
     23 C          61.8769   96.8541   -4.1543 C.ar    1  UNL1       -0.0001
     24 C          61.1535   96.2519   -5.3221 C.ar    1  UNL1        0.0031
     25 C          60.3083   95.0275   -5.1304 C.ar    1  UNL1        0.0366
     26 C          60.1866   94.4054   -3.7709 C.ar    1  UNL1        0.1365
     27 O          59.3415   93.1812   -3.5793 O.3     1  UNL1       -0.4730
     28 C          58.0852   93.0041   -4.3797 C.3     1  UNL1        0.2370
     29 C          57.5211   91.6313   -4.5961 C.3     1  UNL1        0.1847
     30 O          57.0048   90.8402   -3.4308 O.3     1  UNL1       -0.3784
     31 H          57.7401   90.6218   -2.8371 H       1  UNL1        0.2106
     32 C          63.3760   93.9156   -0.7658 C.2     1  UNL1        0.1732
     33 O          63.8357   93.3182   -2.0626 O.2     1  UNL1       -0.2915
     34 C          64.3704   94.5447    0.1644 C.3     1  UNL1        0.0554
     35 C          65.0010   93.2038    0.3973 C.3     1  UNL1        0.0077
     36 C          63.7398   95.8857   -0.0685 C.3     1  UNL1        0.0077
     37 C          65.3649   95.1739    1.0945 C.3     1  UNL1        0.0077
@<TRIPOS>BOND
     1    15    16    1
     2    16    17   ar
     3    17    18   ar
     4    18     9    1
     5     9    10   ar
     6    10    11   ar
     7    11    12   ar
     8    12     1    1
     9     1     2   am
    10     2     3    2
    11     2     4    1
    12     4     5    1
    13     4     6    2
    14     6    32    1
    15    32    33    2
    16    32    34    1
    17    34    35    1
    18    34    36    1
    19    34    37    1
    20     6     7    1
    21     7    21    1
    22    21    22   ar
    23    22    23   ar
    24    23    24   ar
    25    24    25   ar
    26    25    26   ar
    27    26    27    1
    28    27    28    1
    29    28    29    1
    30    29    30    1
    31    12    13   ar
    32    13    14   ar
    33    18    19   ar
    34    19    20   ar
    35    20    16   ar
    36    14     9   ar
    37     7     1    1
    38    26    21   ar
    39     5     8    1
    40    30    31    1
@<TRIPOS>MOLECULE
*****
 37 40 0 0 0
SMALL
GASTEIGER

@<TRIPOS>ATOM
      1 N          63.4072   85.9713   14.0538 N.am    1  UNL1       -0.2463
      2 C          63.4430   85.2724   15.3806 C.2     1  UNL1        0.2869
      3 O          63.8901   85.8717   16.6810 O.2     1  UNL1       -0.2662
      4 C          62.9531   83.8692   15.1788 C.2     1  UNL1        0.1887
      5 O          62.8243   82.8188   16.2418 O.2     1  UNL1       -0.5020
      6 C          62.6146   83.7007   13.7272 C.2     1  UNL1        0.0732
      7 C          62.8953   84.9999   13.0319 C.3     1  UNL1        0.1338
      8 H          63.0610   83.0162   17.1267 H       1  UNL1        0.2924
      9 C          64.6226   90.2336   13.2756 C.ar    1  UNL1        0.0373
     10 C          63.7528   89.5100   12.2908 C.ar    1  UNL1        0.0044
     11 C          63.3477   88.0892   12.5502 C.ar    1  UNL1        0.0150
     12 C          63.8124   87.3921   13.7944 C.ar    1  UNL1        0.0548
     13 C          64.6821   88.1157   14.7792 C.ar    1  UNL1        0.0150
     14 C          65.0872   89.5364   14.5198 C.ar    1  UNL1        0.0044
     15 C          65.8170   94.7433   10.8024 C.3     1  UNL1        0.0557
     16 C          65.5767   93.7273   11.8794 C.ar    1  UNL1        0.1011
     17 C          65.1454   92.3059   11.6703 C.ar    1  UNL1        0.0581
     18 C          65.0277   91.6544   13.0162 C.ar    1  UNL1        0.1765
     19 O          65.3863   92.6730   14.0573 O.2     1  UNL1       -0.3537
     20 N          65.7256   93.9541   13.3547 N.ar    1  UNL1       -0.0813
     21 C          62.6985   85.2786   11.5713 C.ar    1  UNL1        0.0344
     22 C          61.6858   86.2937   11.1311 C.ar    1  UNL1        0.0007
     23 C          61.4890   86.5725    9.6705 C.ar    1  UNL1       -0.0001
     24 C          62.3051   85.8361    8.6498 C.ar    1  UNL1        0.0031
     25 C          63.3179   84.8209    9.0900 C.ar    1  UNL1        0.0366
     26 C          63.5146   84.5421   10.5506 C.ar    1  UNL1        0.1365
     27 O          64.5274   83.5270   10.9907 O.3     1  UNL1       -0.4730
     28 C          64.6764   82.2398   10.2349 C.3     1  UNL1        0.2370
     29 C          63.4587   81.4697    9.8179 C.3     1  UNL1        0.1847
     30 O          63.0770   80.2165   10.5487 O.3     1  UNL1       -0.3784
     31 H          63.7554   79.5384   10.4040 H       1  UNL1        0.2106
     32 C          62.0878   82.4522   13.0838 C.2     1  UNL1        0.1732
     33 O          61.3563   82.5332   11.7768 O.2     1  UNL1       -0.2915
     34 C          62.2926   81.1227   13.7475 C.3     1  UNL1        0.0554
     35 C          60.8186   81.0256   14.0077 C.3     1  UNL1        0.0077
     36 C          63.7666   81.2198   13.4872 C.3     1  UNL1        0.0077
     37 C          62.4973   79.7932   14.4111 C.3     1  UNL1        0.0077
@<TRIPOS>BOND
     1    15    16    1
     2    16    17   ar
     3    17    18   ar
     4    18     9    1
     5     9    10   ar
     6    10    11   ar
     7    11    12   ar
     8    12     1    1
     9     1     2   am
    10     2     3    2
    11     2     4    1
    12     4     5    1
    13     4     6    2
    14     6    32    1
    15    32    33    2
    16    32    34    1
    17    34    35    1
    18    34    36    1
    19    34    37    1
    20     6     7    1
    21     7    21    1
    22    21    22   ar
    23    22    23   ar
    24    23    24   ar
    25    24    25   ar
    26    25    26   ar
    27    26    27    1
    28    27    28    1
    29    28    29    1
    30    29    30    1
    31    12    13   ar
    32    13    14   ar
    33    18    19   ar
    34    19    20   ar
    35    20    16   ar
    36    14     9   ar
    37     7     1    1
    38    26    21   ar
    39     5     8    1
    40    30    31    1
