@<TRIPOS>MOLECULE
*****
 17 19 0 0 0
SMALL
GASTEIGER

@<TRIPOS>ATOM
      1 C          63.7636   89.7483   12.6808 C.ar    1  UNL1        0.2497
      2 N          63.6976   88.3370   13.1847 N.ar    1  UNL1       -0.1072
      3 N          62.8103   87.5561   12.2613 N.ar    1  UNL1       -0.1114
      4 C          62.3279   88.4847   11.1865 C.ar    1  UNL1        0.2260
      5 O          62.9171   89.8395   11.4458 O.2     1  UNL1       -0.4195
      6 C          65.5326   92.0244   15.4084 C.ar    1  UNL1        0.0990
      7 C          64.7564   90.9016   14.7866 C.ar    1  UNL1        0.0254
      8 C          64.5398   90.8712   13.3026 C.ar    1  UNL1        0.0582
      9 C          65.0994   91.9637   12.4405 C.ar    1  UNL1        0.0254
     10 C          65.8756   93.0865   13.0623 C.ar    1  UNL1        0.0990
     11 N          66.0922   93.1169   14.5462 N.ar    1  UNL1       -0.2423
     12 C          61.4164   88.1221   10.0518 C.3     1  UNL1        0.0782
     13 C          60.7112   89.1996    9.2826 C.3     1  UNL1        0.0093
     14 C          59.7997   88.8370    8.1478 C.3     1  UNL1        0.0005
     15 C          59.5934   87.3969    7.7823 C.3     1  UNL1        0.0000
     16 C          60.2985   86.3194    8.5515 C.3     1  UNL1        0.0005
     17 C          61.2100   86.6820    9.6863 C.3     1  UNL1        0.0093
@<TRIPOS>BOND
     1     6     7   ar
     2     7     8   ar
     3     8     1    1
     4     1     2   ar
     5     2     3   ar
     6     3     4   ar
     7     4    12    1
     8    12    13    1
     9    13    14    1
    10    14    15    1
    11    15    16    1
    12    16    17    1
    13     4     5   ar
    14     8     9   ar
    15     9    10   ar
    16    10    11   ar
    17    11     6   ar
    18     5     1   ar
    19    17    12    1
@<TRIPOS>MOLECULE
*****
 17 19 0 0 0
SMALL
GASTEIGER

@<TRIPOS>ATOM
      1 C          63.8262   87.6078   14.1939 C.ar    1  UNL1        0.2497
      2 N          63.8586   87.0941   15.6027 N.ar    1  UNL1       -0.1072
      3 N          63.5900   85.6188   15.5644 N.ar    1  UNL1       -0.1114
      4 C          63.3918   85.2208   14.1318 C.ar    1  UNL1        0.2260
      5 O          63.5377   86.4501   13.2848 O.2     1  UNL1       -0.4195
      6 C          65.1492   91.3493   14.1542 C.ar    1  UNL1        0.0990
      7 C          64.9313   89.9274   14.5793 C.ar    1  UNL1        0.0254
      8 C          64.0441   89.0298   13.7687 C.ar    1  UNL1        0.0582
      9 C          63.3749   89.5540   12.5329 C.ar    1  UNL1        0.0254
     10 C          63.5928   90.9759   12.1077 C.ar    1  UNL1        0.0990
     11 N          64.4800   91.8735   12.9184 N.ar    1  UNL1       -0.2423
     12 C          63.0989   83.8365   13.6337 C.3     1  UNL1        0.0782
     13 C          63.4675   83.4503   12.2319 C.3     1  UNL1        0.0093
     14 C          63.1747   82.0661   11.7338 C.3     1  UNL1        0.0005
     15 C          62.5133   81.0681   12.6375 C.3     1  UNL1        0.0000
     16 C          62.1446   81.4543   14.0392 C.3     1  UNL1        0.0005
     17 C          62.4375   82.8386   14.5373 C.3     1  UNL1        0.0093
@<TRIPOS>BOND
     1     6     7   ar
     2     7     8   ar
     3     8     1    1
     4     1     2   ar
     5     2     3   ar
     6     3     4   ar
     7     4    12    1
     8    12    13    1
     9    13    14    1
    10    14    15    1
    11    15    16    1
    12    16    17    1
    13     4     5   ar
    14     8     9   ar
    15     9    10   ar
    16    10    11   ar
    17    11     6   ar
    18     5     1   ar
    19    17    12    1
@<TRIPOS>MOLECULE
*****
 17 19 0 0 0
SMALL
GASTEIGER

@<TRIPOS>ATOM
      1 C          64.3013   86.8343   14.4990 C.ar    1  UNL1        0.2497
      2 N          65.3264   85.9782   15.1819 N.ar    1  UNL1       -0.1072
      3 N          65.2698   84.6100   14.5699 N.ar    1  UNL1       -0.1114
      4 C          64.2097   84.6203   13.5086 C.ar    1  UNL1        0.2260
      5 O          63.6112   85.9950   13.4649 O.2     1  UNL1       -0.4195
      6 C          63.9076   90.7550   14.0267 C.ar    1  UNL1        0.0990
      7 C          64.1926   89.3129   13.7280 C.ar    1  UNL1        0.0254
      8 C          64.0163   88.2764   14.7978 C.ar    1  UNL1        0.0582
      9 C          63.5551   88.6818   16.1663 C.ar    1  UNL1        0.0254
     10 C          63.2701   90.1239   16.4650 C.ar    1  UNL1        0.0990
     11 N          63.4464   91.1604   15.3952 N.ar    1  UNL1       -0.2423
     12 C          63.8172   83.4598   12.6432 C.3     1  UNL1        0.0782
     13 C          64.3010   83.3842   11.2253 C.3     1  UNL1        0.0093
     14 C          63.9084   82.2236   10.3599 C.3     1  UNL1        0.0005
     15 C          63.0321   81.1387   10.9123 C.3     1  UNL1        0.0000
     16 C          62.5483   81.2144   12.3301 C.3     1  UNL1        0.0005
     17 C          62.9409   82.3749   13.1955 C.3     1  UNL1        0.0093
@<TRIPOS>BOND
     1     6     7   ar
     2     7     8   ar
     3     8     1    1
     4     1     2   ar
     5     2     3   ar
     6     3     4   ar
     7     4    12    1
     8    12    13    1
     9    13    14    1
    10    14    15    1
    11    15    16    1
    12    16    17    1
    13     4     5   ar
    14     8     9   ar
    15     9    10   ar
    16    10    11   ar
    17    11     6   ar
    18     5     1   ar
    19    17    12    1
@<TRIPOS>MOLECULE
*****
 17 19 0 0 0
SMALL
GASTEIGER

@<TRIPOS>ATOM
      1 C          63.5241   90.7527   11.6344 C.ar    1  UNL1        0.2497
      2 N          62.7446   90.0927   12.7329 N.ar    1  UNL1       -0.1072
      3 N          61.7950   89.1159   12.1051 N.ar    1  UNL1       -0.1114
      4 C          61.9877   89.1721   10.6186 C.ar    1  UNL1        0.2260
      5 O          63.0563   90.1838   10.3277 O.2     1  UNL1       -0.4195
      6 C          66.0385   93.7170   10.8339 C.ar    1  UNL1        0.0990
      7 C          64.9775   92.6716   10.6569 C.ar    1  UNL1        0.0254
      8 C          64.5851   91.7981   11.8115 C.ar    1  UNL1        0.0582
      9 C          65.2538   91.9701   13.1431 C.ar    1  UNL1        0.0254
     10 C          66.3148   93.0155   13.3202 C.ar    1  UNL1        0.0990
     11 N          66.7071   93.8889   12.1655 N.ar    1  UNL1       -0.2423
     12 C          61.2425   88.3595    9.6015 C.3     1  UNL1        0.0782
     13 C          60.1292   88.9829    8.8130 C.3     1  UNL1        0.0093
     14 C          59.3840   88.1702    7.7960 C.3     1  UNL1        0.0005
     15 C          59.7523   86.7342    7.5675 C.3     1  UNL1        0.0000
     16 C          60.8656   86.1108    8.3560 C.3     1  UNL1        0.0005
     17 C          61.6108   86.9234    9.3730 C.3     1  UNL1        0.0093
@<TRIPOS>BOND
     1     6     7   ar
     2     7     8   ar
     3     8     1    1
     4     1     2   ar
     5     2     3   ar
     6     3     4   ar
     7     4    12    1
     8    12    13    1
     9    13    14    1
    10    14    15    1
    11    15    16    1
    12    16    17    1
    13     4     5   ar
    14     8     9   ar
    15     9    10   ar
    16    10    11   ar
    17    11     6   ar
    18     5     1   ar
    19    17    12    1
@<TRIPOS>MOLECULE
*****
 17 19 0 0 0
SMALL
GASTEIGER

@<TRIPOS>ATOM
      1 C          62.5352   85.0974   12.1577 C.ar    1  UNL1        0.2497
      2 N          63.0319   86.4570   12.5509 N.ar    1  UNL1       -0.1072
      3 N          62.4342   87.4593   11.6085 N.ar    1  UNL1       -0.1114
      4 C          61.5681   86.7191   10.6328 C.ar    1  UNL1        0.2260
      5 O          61.6305   85.2594   10.9722 O.2     1  UNL1       -0.4195
      6 C          63.7753   82.5132   14.9026 C.ar    1  UNL1        0.0990
      7 C          63.4282   83.8076   14.2287 C.ar    1  UNL1        0.0254
      8 C          62.8822   83.8029   12.8316 C.ar    1  UNL1        0.0582
      9 C          62.6833   82.5040   12.1084 C.ar    1  UNL1        0.0254
     10 C          63.0303   81.2096   12.7823 C.ar    1  UNL1        0.0990
     11 N          63.5763   81.2142   14.1794 N.ar    1  UNL1       -0.2423
     12 C          60.7783   87.3312    9.5141 C.3     1  UNL1        0.0782
     13 C          60.7594   88.8206    9.3368 C.3     1  UNL1        0.0093
     14 C          59.9695   89.4327    8.2181 C.3     1  UNL1        0.0005
     15 C          59.1986   88.5555    7.2768 C.3     1  UNL1        0.0000
     16 C          59.2175   87.0661    7.4541 C.3     1  UNL1        0.0005
     17 C          60.0073   86.4540    8.5728 C.3     1  UNL1        0.0093
@<TRIPOS>BOND
     1     6     7   ar
     2     7     8   ar
     3     8     1    1
     4     1     2   ar
     5     2     3   ar
     6     3     4   ar
     7     4    12    1
     8    12    13    1
     9    13    14    1
    10    14    15    1
    11    15    16    1
    12    16    17    1
    13     4     5   ar
    14     8     9   ar
    15     9    10   ar
    16    10    11   ar
    17    11     6   ar
    18     5     1   ar
    19    17    12    1
@<TRIPOS>MOLECULE
*****
 17 19 0 0 0
SMALL
GASTEIGER

@<TRIPOS>ATOM
      1 C          64.2584   86.7744   14.7297 C.ar    1  UNL1        0.2497
      2 N          65.5715   86.0705   14.9036 N.ar    1  UNL1       -0.1072
      3 N          65.3716   84.6245   14.5581 N.ar    1  UNL1       -0.1114
      4 C          63.9349   84.4348   14.1707 C.ar    1  UNL1        0.2260
      5 O          63.2469   85.7635   14.2768 O.2     1  UNL1       -0.4195
      6 C          63.2378   90.1569   16.5372 C.ar    1  UNL1        0.0990
      7 C          63.4944   88.6982   16.2998 C.ar    1  UNL1        0.0254
      8 C          64.0017   88.2331   14.9670 C.ar    1  UNL1        0.0582
      9 C          64.2523   89.2267   13.8716 C.ar    1  UNL1        0.0254
     10 C          63.9957   90.6853   14.1090 C.ar    1  UNL1        0.0990
     11 N          63.4884   91.1504   15.4418 N.ar    1  UNL1       -0.2423
     12 C          63.2981   83.1432   13.7510 C.3     1  UNL1        0.0782
     13 C          62.2473   82.5099   14.6140 C.3     1  UNL1        0.0093
     14 C          61.6105   81.2183   14.1943 C.3     1  UNL1        0.0005
     15 C          62.0245   80.5600   12.9116 C.3     1  UNL1        0.0000
     16 C          63.0752   81.1933   12.0486 C.3     1  UNL1        0.0005
     17 C          63.7121   82.4849   12.4683 C.3     1  UNL1        0.0093
@<TRIPOS>BOND
     1     6     7   ar
     2     7     8   ar
     3     8     1    1
     4     1     2   ar
     5     2     3   ar
     6     3     4   ar
     7     4    12    1
     8    12    13    1
     9    13    14    1
    10    14    15    1
    11    15    16    1
    12    16    17    1
    13     4     5   ar
    14     8     9   ar
    15     9    10   ar
    16    10    11   ar
    17    11     6   ar
    18     5     1   ar
    19    17    12    1
@<TRIPOS>MOLECULE
*****
 17 19 0 0 0
SMALL
GASTEIGER

@<TRIPOS>ATOM
      1 C          63.0345   87.7913   12.4982 C.ar    1  UNL1        0.2497
      2 N          61.9499   87.5736   11.4852 N.ar    1  UNL1       -0.1072
      3 N          61.6829   86.0999   11.4015 N.ar    1  UNL1       -0.1114
      4 C          62.6026   85.4068   12.3628 C.ar    1  UNL1        0.2260
      5 O          63.4379   86.4522   13.0405 O.2     1  UNL1       -0.4195
      6 C          64.0543   91.6252   12.3900 C.ar    1  UNL1        0.0990
      7 C          63.4748   90.3009   11.9897 C.ar    1  UNL1        0.0254
      8 C          63.6140   89.1157   12.8986 C.ar    1  UNL1        0.0582
      9 C          64.3327   89.2549   14.2078 C.ar    1  UNL1        0.0254
     10 C          64.9122   90.5793   14.6081 C.ar    1  UNL1        0.0990
     11 N          64.7730   91.7644   13.6992 N.ar    1  UNL1       -0.2423
     12 C          62.6744   83.9281   12.6039 C.3     1  UNL1        0.0782
     13 C          62.9589   82.9953   11.4641 C.3     1  UNL1        0.0093
     14 C          63.0307   81.5166   11.7052 C.3     1  UNL1        0.0005
     15 C          62.8179   80.9706   13.0861 C.3     1  UNL1        0.0000
     16 C          62.5333   81.9034   14.2258 C.3     1  UNL1        0.0005
     17 C          62.4615   83.3821   13.9847 C.3     1  UNL1        0.0093
@<TRIPOS>BOND
     1     6     7   ar
     2     7     8   ar
     3     8     1    1
     4     1     2   ar
     5     2     3   ar
     6     3     4   ar
     7     4    12    1
     8    12    13    1
     9    13    14    1
    10    14    15    1
    11    15    16    1
    12    16    17    1
    13     4     5   ar
    14     8     9   ar
    15     9    10   ar
    16    10    11   ar
    17    11     6   ar
    18     5     1   ar
    19    17    12    1
@<TRIPOS>MOLECULE
*****
 17 19 0 0 0
SMALL
GASTEIGER

@<TRIPOS>ATOM
      1 C          65.0339   91.2946   14.4390 C.ar    1  UNL1        0.2497
      2 N          65.3653   92.5639   15.1662 N.ar    1  UNL1       -0.1072
      3 N          65.9616   93.5221   14.1781 N.ar    1  UNL1       -0.1114
      4 C          65.9987   92.8449   12.8401 C.ar    1  UNL1        0.2260
      5 O          65.4254   91.4683   13.0014 O.2     1  UNL1       -0.4195
      6 C          62.9649   88.9529   16.8856 C.ar    1  UNL1        0.0990
      7 C          63.5798   90.1803   16.2813 C.ar    1  UNL1        0.0254
      8 C          64.4190   90.0670   15.0432 C.ar    1  UNL1        0.0582
      9 C          64.6433   88.7262   14.4094 C.ar    1  UNL1        0.0254
     10 C          64.0284   87.4987   15.0136 C.ar    1  UNL1        0.0990
     11 N          63.1892   87.6120   16.2517 N.ar    1  UNL1       -0.2423
     12 C          66.5179   93.4400   11.5649 C.3     1  UNL1        0.0782
     13 C          67.3118   92.5961   10.6122 C.3     1  UNL1        0.0093
     14 C          67.8311   93.1911    9.3370 C.3     1  UNL1        0.0005
     15 C          67.5565   94.6301    9.0144 C.3     1  UNL1        0.0000
     16 C          66.7626   95.4740    9.9671 C.3     1  UNL1        0.0005
     17 C          66.2433   94.8789   11.2423 C.3     1  UNL1        0.0093
@<TRIPOS>BOND
     1     6     7   ar
     2     7     8   ar
     3     8     1    1
     4     1     2   ar
     5     2     3   ar
     6     3     4   ar
     7     4    12    1
     8    12    13    1
     9    13    14    1
    10    14    15    1
    11    15    16    1
    12    16    17    1
    13     4     5   ar
    14     8     9   ar
    15     9    10   ar
    16    10    11   ar
    17    11     6   ar
    18     5     1   ar
    19    17    12    1
@<TRIPOS>MOLECULE
*****
 17 19 0 0 0
SMALL
GASTEIGER

@<TRIPOS>ATOM
      1 C          61.3730   88.3031   10.5369 C.ar    1  UNL1        0.2497
      2 N          60.5824   88.6109   11.7739 N.ar    1  UNL1       -0.1072
      3 N          61.4000   89.5331   12.6289 N.ar    1  UNL1       -0.1114
      4 C          62.6959   89.7952   11.9204 C.ar    1  UNL1        0.2260
      5 O          62.6792   89.0350   10.6274 O.2     1  UNL1       -0.4195
      6 C          61.4308   85.4958    7.7322 C.ar    1  UNL1        0.0990
      7 C          61.8693   86.3803    8.8615 C.ar    1  UNL1        0.0254
      8 C          60.9344   87.4185    9.4075 C.ar    1  UNL1        0.0582
      9 C          59.5611   87.5722    8.8243 C.ar    1  UNL1        0.0254
     10 C          59.1226   86.6877    7.6950 C.ar    1  UNL1        0.0990
     11 N          60.0574   85.6495    7.1490 N.ar    1  UNL1       -0.2423
     12 C          63.8124   90.6649   12.4175 C.3     1  UNL1        0.0782
     13 C          64.3707   91.7443   11.5382 C.3     1  UNL1        0.0093
     14 C          65.4872   92.6139   12.0353 C.3     1  UNL1        0.0005
     15 C          66.0453   92.4042   13.4118 C.3     1  UNL1        0.0000
     16 C          65.4870   91.3248   14.2911 C.3     1  UNL1        0.0005
     17 C          64.3705   90.4552   13.7939 C.3     1  UNL1        0.0093
@<TRIPOS>BOND
     1     6     7   ar
     2     7     8   ar
     3     8     1    1
     4     1     2   ar
     5     2     3   ar
     6     3     4   ar
     7     4    12    1
     8    12    13    1
     9    13    14    1
    10    14    15    1
    11    15    16    1
    12    16    17    1
    13     4     5   ar
    14     8     9   ar
    15     9    10   ar
    16    10    11   ar
    17    11     6   ar
    18     5     1   ar
    19    17    12    1
