@<TRIPOS>MOLECULE
*****
 36 40 0 0 0
SMALL
GASTEIGER

@<TRIPOS>ATOM
      1 C          59.0410   89.2269   12.6490 C.3     1  UNL1        0.0553
      2 C          60.4049   89.7980   12.3965 C.ar    1  UNL1        0.0935
      3 N          61.4370   90.1100   13.4393 N.ar    1  UNL1       -0.1727
      4 N          62.6461   90.6623   12.7442 N.ar    1  UNL1       -0.2558
      5 C          62.3613   90.6916   11.2718 C.ar    1  UNL1        0.0704
      6 C          63.2971   91.1709   10.2021 C.3     1  UNL1        0.0531
      7 C          60.9761   90.1575   11.0569 C.ar    1  UNL1        0.0792
      8 C          63.9169   91.1071   13.4054 C.3     1  UNL1        0.1083
      9 C          65.0572   91.6148   12.5736 C.3     1  UNL1        0.0459
     10 C          66.3281   92.0597   13.2347 C.3     1  UNL1        0.0955
     11 N          66.4585   91.9968   14.7278 N.am    1  UNL1       -0.2774
     12 C          67.7293   92.4416   15.3889 C.2     1  UNL1        0.2556
     13 O          67.8598   92.3788   16.8820 O.2     1  UNL1       -0.2722
     14 C          65.3181   91.4891   15.5596 C.3     1  UNL1        0.0955
     15 C          64.0474   91.0443   14.8983 C.3     1  UNL1        0.0459
     16 C          68.8697   92.9493   14.5571 C.3     1  UNL1        0.2232
     17 O          69.6847   91.9927   13.7382 O.3     1  UNL1       -0.3737
     18 H          70.1682   91.3930   14.3277 H       1  UNL1        0.2110
     19 N          60.2837   90.0089    9.7346 N.pl3   1  UNL1       -0.2806
     20 H          59.7897   90.7684    9.3495 H       1  UNL1        0.1551
     21 C          60.3438   88.7030    8.9990 C.ar    1  UNL1        0.2208
     22 N          59.4301   88.4547    7.8357 N.ar    1  UNL1       -0.2111
     23 C          59.4902   87.1489    7.1001 C.ar    1  UNL1        0.1147
     24 C          60.4642   86.0913    7.5278 C.ar    1  UNL1        0.0946
     25 CL         60.5243   84.7854    6.7923 Cl      1  UNL1       -0.0790
     26 C          61.3780   86.3396    8.6913 C.ar    1  UNL1        0.0992
     27 N          61.3178   87.6454    9.4268 N.ar    1  UNL1       -0.2126
     28 C          62.3519   85.2820    9.1190 C.ar    1  UNL1        0.0572
     29 C          63.1698   84.4159    8.2074 C.ar    1  UNL1        0.1235
     30 N          64.0023   83.5035    9.0585 N.ar    1  UNL1       -0.1634
     31 N          63.6989   83.8056   10.4961 N.ar    1  UNL1       -0.2281
     32 C          64.2197   83.2218   11.7759 C.ar    1  UNL1        0.1004
     33 C          63.7204   83.7372   13.0931 C.ar    1  UNL1        0.0207
     34 C          62.7004   84.8364   13.1305 C.ar    1  UNL1        0.0031
     35 C          62.1797   85.4202   11.8507 C.ar    1  UNL1        0.0193
     36 C          62.6789   84.9048   10.5335 C.ar    1  UNL1        0.0858
@<TRIPOS>BOND
     1     1     2    1
     2     2     3   ar
     3     3     4   ar
     4     4     8    1
     5     8     9    1
     6     9    10    1
     7    10    11    1
     8    11    12   am
     9    12    13    2
    10    12    16    1
    11    16    17    1
    12    11    14    1
    13    14    15    1
    14     4     5   ar
    15     5     6    1
    16     5     7   ar
    17     7    19    1
    18    19    21    1
    19    21    22   ar
    20    22    23   ar
    21    23    24   ar
    22    24    25    1
    23    24    26   ar
    24    26    28    1
    25    28    29   ar
    26    29    30   ar
    27    30    31   ar
    28    31    32   ar
    29    32    33   ar
    30    33    34   ar
    31    34    35   ar
    32    35    36   ar
    33    26    27   ar
    34     7     2   ar
    35    27    21   ar
    36    15     8    1
    37    36    28   ar
    38    36    31   ar
    39    17    18    1
    40    19    20    1
@<TRIPOS>MOLECULE
*****
 36 40 0 0 0
SMALL
GASTEIGER

@<TRIPOS>ATOM
      1 C          63.2854   90.7104   11.8386 C.3     1  UNL1        0.0553
      2 C          63.3579   89.4895   12.7069 C.ar    1  UNL1        0.0935
      3 N          63.3419   88.0670   12.2313 N.ar    1  UNL1       -0.1727
      4 N          63.4333   87.1750   13.4339 N.ar    1  UNL1       -0.2558
      5 C          63.5059   88.0462   14.6528 C.ar    1  UNL1        0.0704
      6 C          63.6072   87.5707   16.0717 C.3     1  UNL1        0.0531
      7 C          63.4593   89.4767   14.2035 C.ar    1  UNL1        0.0792
      8 C          63.4494   85.6752   13.4201 C.3     1  UNL1        0.1083
      9 C          62.6821   84.9266   12.3708 C.3     1  UNL1        0.0459
     10 C          62.6982   83.4267   12.3569 C.3     1  UNL1        0.0955
     11 N          63.4816   82.6755   13.3923 N.am    1  UNL1       -0.2774
     12 C          63.4976   81.1756   13.3784 C.2     1  UNL1        0.2556
     13 O          64.2809   80.4243   14.4138 O.2     1  UNL1       -0.2722
     14 C          64.2488   83.4241   14.4416 C.3     1  UNL1        0.0955
     15 C          64.2327   84.9239   14.4554 C.3     1  UNL1        0.0459
     16 C          62.7303   80.4270   12.3292 C.3     1  UNL1        0.2232
     17 O          63.0130   80.6708   10.8764 O.3     1  UNL1       -0.3737
     18 H          62.7604   81.5784   10.6457 H       1  UNL1        0.2110
     19 N          63.5059   90.6826   15.0943 N.pl3   1  UNL1       -0.2806
     20 H          62.7622   90.8669   15.7126 H       1  UNL1        0.1551
     21 C          64.6855   91.6078   15.0432 C.ar    1  UNL1        0.2208
     22 N          65.5527   91.7849   16.2542 N.ar    1  UNL1       -0.2111
     23 C          66.7323   92.7101   16.2031 C.ar    1  UNL1        0.1147
     24 C          67.0446   93.4581   14.9410 C.ar    1  UNL1        0.0946
     25 CL         68.2242   94.3833   14.8898 Cl      1  UNL1       -0.0790
     26 C          66.1774   93.2809   13.7299 C.ar    1  UNL1        0.0992
     27 N          64.9978   92.3558   13.7811 N.ar    1  UNL1       -0.2126
     28 C          66.4897   94.0289   12.4678 C.ar    1  UNL1        0.0572
     29 C          66.2019   95.4778   12.2074 C.ar    1  UNL1        0.1235
     30 N          66.6791   95.8037   10.8232 N.ar    1  UNL1       -0.1634
     31 N          67.2618   94.5562   10.2281 N.ar    1  UNL1       -0.2281
     32 C          67.8839   94.2773    8.8920 C.ar    1  UNL1        0.1004
     33 C          68.3889   92.9016    8.5723 C.ar    1  UNL1        0.0207
     34 C          68.2719   91.8047    9.5888 C.ar    1  UNL1        0.0031
     35 C          67.6499   92.0836   10.9249 C.ar    1  UNL1        0.0193
     36 C          67.1448   93.4593   11.2445 C.ar    1  UNL1        0.0858
@<TRIPOS>BOND
     1     1     2    1
     2     2     3   ar
     3     3     4   ar
     4     4     8    1
     5     8     9    1
     6     9    10    1
     7    10    11    1
     8    11    12   am
     9    12    13    2
    10    12    16    1
    11    16    17    1
    12    11    14    1
    13    14    15    1
    14     4     5   ar
    15     5     6    1
    16     5     7   ar
    17     7    19    1
    18    19    21    1
    19    21    22   ar
    20    22    23   ar
    21    23    24   ar
    22    24    25    1
    23    24    26   ar
    24    26    28    1
    25    28    29   ar
    26    29    30   ar
    27    30    31   ar
    28    31    32   ar
    29    32    33   ar
    30    33    34   ar
    31    34    35   ar
    32    35    36   ar
    33    26    27   ar
    34     7     2   ar
    35    27    21   ar
    36    15     8    1
    37    36    28   ar
    38    36    31   ar
    39    17    18    1
    40    19    20    1
@<TRIPOS>MOLECULE
*****
 36 40 0 0 0
SMALL
GASTEIGER

@<TRIPOS>ATOM
      1 C          62.6721   87.0601   18.4561 C.3     1  UNL1        0.0553
      2 C          62.9249   86.5343   17.0743 C.ar    1  UNL1        0.0935
      3 N          62.6935   85.1267   16.6105 N.ar    1  UNL1       -0.1727
      4 N          63.0790   85.0462   15.1630 N.ar    1  UNL1       -0.2558
      5 C          63.5488   86.4041   14.7323 C.ar    1  UNL1        0.0704
      6 C          64.0293   86.7768   13.3612 C.3     1  UNL1        0.0531
      7 C          63.4535   87.3238   15.9135 C.ar    1  UNL1        0.0792
      8 C          63.0074   83.8227   14.2982 C.3     1  UNL1        0.1083
      9 C          63.3001   83.9236   12.8305 C.3     1  UNL1        0.0459
     10 C          63.2285   82.7000   11.9656 C.3     1  UNL1        0.0955
     11 N          62.8642   81.3757   12.5686 N.am    1  UNL1       -0.2774
     12 C          62.7927   80.1522   11.7038 C.2     1  UNL1        0.2556
     13 O          62.4284   78.8278   12.3067 O.2     1  UNL1       -0.2722
     14 C          62.5716   81.2749   14.0364 C.3     1  UNL1        0.0955
     15 C          62.6432   82.4985   14.9011 C.3     1  UNL1        0.0459
     16 C          63.0853   80.2530   10.2361 C.3     1  UNL1        0.2232
     17 O          62.7757   79.0995    9.3286 O.3     1  UNL1       -0.3737
     18 H          63.3444   78.3474    9.5562 H       1  UNL1        0.2110
     19 N          63.8221   88.7777   15.9309 N.pl3   1  UNL1       -0.2806
     20 H          64.0421   89.2195   16.7828 H       1  UNL1        0.1551
     21 C          63.8557   89.5584   14.6505 C.ar    1  UNL1        0.2208
     22 N          64.9799   90.5151   14.3848 N.ar    1  UNL1       -0.2111
     23 C          65.0135   91.2958   13.1044 C.ar    1  UNL1        0.1147
     24 C          63.9228   91.1198   12.0898 C.ar    1  UNL1        0.0946
     25 CL         63.9563   91.9005   10.8094 Cl      1  UNL1       -0.0790
     26 C          62.7985   90.1630   12.3556 C.ar    1  UNL1        0.0992
     27 N          62.7650   89.3823   13.6360 N.ar    1  UNL1       -0.2126
     28 C          61.7077   89.9869   11.3410 C.ar    1  UNL1        0.0572
     29 C          60.5960   90.9552   11.0647 C.ar    1  UNL1        0.1235
     30 N          59.7385   90.3783    9.9775 N.ar    1  UNL1       -0.1634
     31 N          60.3203   89.0535    9.5820 N.ar    1  UNL1       -0.2281
     32 C          59.8991   88.0363    8.5633 C.ar    1  UNL1        0.1004
     33 C          60.6949   86.7771    8.3874 C.ar    1  UNL1        0.0207
     34 C          61.9120   86.5352    9.2301 C.ar    1  UNL1        0.0031
     35 C          62.3333   87.5524   10.2487 C.ar    1  UNL1        0.0193
     36 C          61.5374   88.8116   10.4247 C.ar    1  UNL1        0.0858
@<TRIPOS>BOND
     1     1     2    1
     2     2     3   ar
     3     3     4   ar
     4     4     8    1
     5     8     9    1
     6     9    10    1
     7    10    11    1
     8    11    12   am
     9    12    13    2
    10    12    16    1
    11    16    17    1
    12    11    14    1
    13    14    15    1
    14     4     5   ar
    15     5     6    1
    16     5     7   ar
    17     7    19    1
    18    19    21    1
    19    21    22   ar
    20    22    23   ar
    21    23    24   ar
    22    24    25    1
    23    24    26   ar
    24    26    28    1
    25    28    29   ar
    26    29    30   ar
    27    30    31   ar
    28    31    32   ar
    29    32    33   ar
    30    33    34   ar
    31    34    35   ar
    32    35    36   ar
    33    26    27   ar
    34     7     2   ar
    35    27    21   ar
    36    15     8    1
    37    36    28   ar
    38    36    31   ar
    39    17    18    1
    40    19    20    1
@<TRIPOS>MOLECULE
*****
 36 40 0 0 0
SMALL
GASTEIGER

@<TRIPOS>ATOM
      1 C          64.1220   88.8371   15.8740 C.3     1  UNL1        0.0553
      2 C          63.7391   87.9822   14.7026 C.ar    1  UNL1        0.0935
      3 N          63.7931   86.4841   14.6493 N.ar    1  UNL1       -0.1727
      4 N          63.3222   86.0512   13.2924 N.ar    1  UNL1       -0.2558
      5 C          62.9772   87.2818   12.5071 C.ar    1  UNL1        0.0704
      6 C          62.4646   87.3134   11.0978 C.3     1  UNL1        0.0531
      7 C          63.2348   88.4752   13.3786 C.ar    1  UNL1        0.0792
      8 C          63.2152   84.6363   12.8062 C.3     1  UNL1        0.1083
      9 C          63.5220   84.3099   11.3746 C.3     1  UNL1        0.0459
     10 C          63.4150   82.8949   10.8884 C.3     1  UNL1        0.0955
     11 N          63.0011   81.8063   11.8338 N.am    1  UNL1       -0.2774
     12 C          62.8941   80.3913   11.3475 C.2     1  UNL1        0.2556
     13 O          62.4802   79.3027   12.2929 O.2     1  UNL1       -0.2722
     14 C          62.6943   82.1327   13.2653 C.3     1  UNL1        0.0955
     15 C          62.8013   83.5477   13.7515 C.3     1  UNL1        0.0459
     16 C          63.2009   80.0650    9.9160 C.3     1  UNL1        0.2232
     17 O          62.8400   78.7196    9.3595 O.3     1  UNL1       -0.3737
     18 H          63.3689   78.0355    9.7989 H       1  UNL1        0.2110
     19 N          63.0251   89.9097   12.9938 N.pl3   1  UNL1       -0.2806
     20 H          62.1822   90.1867   12.5672 H       1  UNL1        0.1551
     21 C          64.0995   90.9223   13.2591 C.ar    1  UNL1        0.2208
     22 N          64.3608   91.3888   14.6606 N.ar    1  UNL1       -0.2111
     23 C          65.4352   92.4013   14.9259 C.ar    1  UNL1        0.1147
     24 C          66.2483   92.9473   13.7897 C.ar    1  UNL1        0.0946
     25 CL         67.3227   93.9599   14.0550 Cl      1  UNL1       -0.0790
     26 C          65.9869   92.4807   12.3882 C.ar    1  UNL1        0.0992
     27 N          64.9126   91.4683   12.1230 N.ar    1  UNL1       -0.2126
     28 C          66.8000   93.0267   11.2521 C.ar    1  UNL1        0.0572
     29 C          67.9419   92.3320   10.5713 C.ar    1  UNL1        0.1235
     30 N          68.4615   93.2393    9.4958 N.ar    1  UNL1       -0.1634
     31 N          67.6408   94.4947    9.5118 N.ar    1  UNL1       -0.2281
     32 C          67.6959   95.7405    8.6782 C.ar    1  UNL1        0.1004
     33 C          66.7240   96.8550    8.9301 C.ar    1  UNL1        0.0207
     34 C          65.6972   96.7236   10.0156 C.ar    1  UNL1        0.0031
     35 C          65.6421   95.4778   10.8491 C.ar    1  UNL1        0.0193
     36 C          66.6139   94.3634   10.5973 C.ar    1  UNL1        0.0858
@<TRIPOS>BOND
     1     1     2    1
     2     2     3   ar
     3     3     4   ar
     4     4     8    1
     5     8     9    1
     6     9    10    1
     7    10    11    1
     8    11    12   am
     9    12    13    2
    10    12    16    1
    11    16    17    1
    12    11    14    1
    13    14    15    1
    14     4     5   ar
    15     5     6    1
    16     5     7   ar
    17     7    19    1
    18    19    21    1
    19    21    22   ar
    20    22    23   ar
    21    23    24   ar
    22    24    25    1
    23    24    26   ar
    24    26    28    1
    25    28    29   ar
    26    29    30   ar
    27    30    31   ar
    28    31    32   ar
    29    32    33   ar
    30    33    34   ar
    31    34    35   ar
    32    35    36   ar
    33    26    27   ar
    34     7     2   ar
    35    27    21   ar
    36    15     8    1
    37    36    28   ar
    38    36    31   ar
    39    17    18    1
    40    19    20    1
@<TRIPOS>MOLECULE
*****
 36 40 0 0 0
SMALL
GASTEIGER

@<TRIPOS>ATOM
      1 C          59.5955   88.9537    8.9315 C.3     1  UNL1        0.0553
      2 C          60.5513   88.3219    9.8995 C.ar    1  UNL1        0.0935
      3 N          60.6392   86.8603   10.2250 N.ar    1  UNL1       -0.1727
      4 N          61.7293   86.6758   11.2388 N.ar    1  UNL1       -0.2558
      5 C          62.3152   88.0234   11.5399 C.ar    1  UNL1        0.0704
      6 C          63.4327   88.3044   12.5000 C.3     1  UNL1        0.0531
      7 C          61.5872   89.0408   10.7122 C.ar    1  UNL1        0.0792
      8 C          62.1582   85.3725   11.8450 C.3     1  UNL1        0.1083
      9 C          62.3182   84.1588   10.9782 C.3     1  UNL1        0.0459
     10 C          62.7471   82.8555   11.5844 C.3     1  UNL1        0.0955
     11 N          63.0161   82.7660   13.0574 N.am    1  UNL1       -0.2774
     12 C          63.4450   81.4627   13.6637 C.2     1  UNL1        0.2556
     13 O          63.7140   81.3731   15.1366 O.2     1  UNL1       -0.2722
     14 C          62.8561   83.9797   13.9242 C.3     1  UNL1        0.0955
     15 C          62.4272   85.2830   13.3179 C.3     1  UNL1        0.0459
     16 C          63.6050   80.2490   12.7969 C.3     1  UNL1        0.2232
     17 O          62.6977   80.0428   11.6203 O.3     1  UNL1       -0.3737
     18 H          61.7904   79.9008   11.9326 H       1  UNL1        0.2110
     19 N          61.8489   90.5177   10.6994 N.pl3   1  UNL1       -0.2806
     20 H          61.2310   91.1231   10.2293 H       1  UNL1        0.1551
     21 C          63.0521   91.0723   11.4027 C.ar    1  UNL1        0.2208
     22 N          63.1503   90.9922   12.8973 N.ar    1  UNL1       -0.2111
     23 C          64.3535   91.5468   13.6007 C.ar    1  UNL1        0.1147
     24 C          65.4585   92.1816   12.8094 C.ar    1  UNL1        0.0946
     25 CL         66.6616   92.7363   13.5128 Cl      1  UNL1       -0.0790
     26 C          65.3602   92.2618   11.3147 C.ar    1  UNL1        0.0992
     27 N          64.1570   91.7072   10.6114 N.ar    1  UNL1       -0.2126
     28 C          66.4652   92.8966   10.5234 C.ar    1  UNL1        0.0572
     29 C          67.7930   92.2746   10.2072 C.ar    1  UNL1        0.1235
     30 N          68.5847   93.2585    9.3978 N.ar    1  UNL1       -0.1634
     31 N          67.7462   94.4886    9.2138 N.ar    1  UNL1       -0.2281
     32 C          68.0062   95.7834    8.5026 C.ar    1  UNL1        0.1004
     33 C          66.9563   96.8546    8.4872 C.ar    1  UNL1        0.0207
     34 C          65.6463   96.6309    9.1828 C.ar    1  UNL1        0.0031
     35 C          65.3863   95.3361    9.8940 C.ar    1  UNL1        0.0193
     36 C          66.4362   94.2649    9.9095 C.ar    1  UNL1        0.0858
@<TRIPOS>BOND
     1     1     2    1
     2     2     3   ar
     3     3     4   ar
     4     4     8    1
     5     8     9    1
     6     9    10    1
     7    10    11    1
     8    11    12   am
     9    12    13    2
    10    12    16    1
    11    16    17    1
    12    11    14    1
    13    14    15    1
    14     4     5   ar
    15     5     6    1
    16     5     7   ar
    17     7    19    1
    18    19    21    1
    19    21    22   ar
    20    22    23   ar
    21    23    24   ar
    22    24    25    1
    23    24    26   ar
    24    26    28    1
    25    28    29   ar
    26    29    30   ar
    27    30    31   ar
    28    31    32   ar
    29    32    33   ar
    30    33    34   ar
    31    34    35   ar
    32    35    36   ar
    33    26    27   ar
    34     7     2   ar
    35    27    21   ar
    36    15     8    1
    37    36    28   ar
    38    36    31   ar
    39    17    18    1
    40    19    20    1
@<TRIPOS>MOLECULE
*****
 36 40 0 0 0
SMALL
GASTEIGER

@<TRIPOS>ATOM
      1 C          48.8296   76.4260   19.8440 C.3     1  UNL1        0.0553
      2 C          47.5802   77.1680   19.4721 C.ar    1  UNL1        0.0935
      3 N          47.4952   78.3396   18.5392 N.ar    1  UNL1       -0.1727
      4 N          46.0588   78.7644   18.4582 N.ar    1  UNL1       -0.2558
      5 C          45.2561   77.8553   19.3409 C.ar    1  UNL1        0.0704
      6 C          43.7736   77.9213   19.5589 C.3     1  UNL1        0.0531
      7 C          46.1963   76.8687   19.9676 C.ar    1  UNL1        0.0792
      8 C          45.5198   79.8990   17.6384 C.3     1  UNL1        0.1083
      9 C          45.2505   79.7056   16.1755 C.3     1  UNL1        0.0459
     10 C          44.7115   80.8402   15.3557 C.3     1  UNL1        0.0955
     11 N          44.4419   82.1683   15.9988 N.am    1  UNL1       -0.2774
     12 C          43.9028   83.3029   15.1789 C.2     1  UNL1        0.2556
     13 O          43.6332   84.6310   15.8220 O.2     1  UNL1       -0.2722
     14 C          44.7112   82.3617   17.4617 C.3     1  UNL1        0.0955
     15 C          45.2502   81.2270   18.2814 C.3     1  UNL1        0.0459
     16 C          43.6335   83.1095   13.7161 C.3     1  UNL1        0.2232
     17 O          44.7359   83.3063   12.7181 O.3     1  UNL1       -0.3737
     18 H          45.0038   84.2385   12.7119 H       1  UNL1        0.2110
     19 N          45.8191   75.7748   20.9220 N.pl3   1  UNL1       -0.2806
     20 H          45.9301   75.9072   21.8912 H       1  UNL1        0.1551
     21 C          45.2726   74.4791   20.3999 C.ar    1  UNL1        0.2208
     22 N          44.7235   73.4587   21.3523 N.ar    1  UNL1       -0.2111
     23 C          44.1771   72.1630   20.8302 C.ar    1  UNL1        0.1147
     24 C          44.1798   71.8878   19.3556 C.ar    1  UNL1        0.0946
     25 CL         43.6334   70.5921   18.8335 Cl      1  UNL1       -0.0790
     26 C          44.7290   72.9083   18.4032 C.ar    1  UNL1        0.0992
     27 N          45.2754   74.2039   18.9254 N.ar    1  UNL1       -0.2126
     28 C          44.7317   72.6331   16.9286 C.ar    1  UNL1        0.0572
     29 C          44.0600   73.4636   15.8755 C.ar    1  UNL1        0.1235
     30 N          44.3198   72.8228   14.5444 N.ar    1  UNL1       -0.1634
     31 N          45.1521   71.5963   14.7748 N.ar    1  UNL1       -0.2281
     32 C          45.7110   70.5711   13.8333 C.ar    1  UNL1        0.1004
     33 C          46.5245   69.4287   14.3653 C.ar    1  UNL1        0.0207
     34 C          46.7791   69.3115   15.8389 C.ar    1  UNL1        0.0031
     35 C          46.2201   70.3367   16.7804 C.ar    1  UNL1        0.0193
     36 C          45.4067   71.4791   16.2484 C.ar    1  UNL1        0.0858
@<TRIPOS>BOND
     1     1     2    1
     2     2     3   ar
     3     3     4   ar
     4     4     8    1
     5     8     9    1
     6     9    10    1
     7    10    11    1
     8    11    12   am
     9    12    13    2
    10    12    16    1
    11    16    17    1
    12    11    14    1
    13    14    15    1
    14     4     5   ar
    15     5     6    1
    16     5     7   ar
    17     7    19    1
    18    19    21    1
    19    21    22   ar
    20    22    23   ar
    21    23    24   ar
    22    24    25    1
    23    24    26   ar
    24    26    28    1
    25    28    29   ar
    26    29    30   ar
    27    30    31   ar
    28    31    32   ar
    29    32    33   ar
    30    33    34   ar
    31    34    35   ar
    32    35    36   ar
    33    26    27   ar
    34     7     2   ar
    35    27    21   ar
    36    15     8    1
    37    36    28   ar
    38    36    31   ar
    39    17    18    1
    40    19    20    1
@<TRIPOS>MOLECULE
*****
 36 40 0 0 0
SMALL
GASTEIGER

@<TRIPOS>ATOM
      1 C          64.9048   87.2324   15.6601 C.3     1  UNL1        0.0553
      2 C          64.1601   87.7590   14.4692 C.ar    1  UNL1        0.0935
      3 N          63.4794   86.9323   13.4188 N.ar    1  UNL1       -0.1727
      4 N          62.8640   87.8671   12.4200 N.ar    1  UNL1       -0.2558
      5 C          63.1644   89.2714   12.8530 C.ar    1  UNL1        0.0704
      6 C          62.7386   90.5228   12.1442 C.3     1  UNL1        0.0531
      7 C          63.9655   89.2047   14.1195 C.ar    1  UNL1        0.0792
      8 C          62.0850   87.4677   11.2019 C.3     1  UNL1        0.1083
      9 C          60.8773   88.2571   10.7919 C.3     1  UNL1        0.0459
     10 C          60.0982   87.8577    9.5738 C.3     1  UNL1        0.0955
     11 N          60.5270   86.6688    8.7659 N.am    1  UNL1       -0.2774
     12 C          59.7480   86.2693    7.5478 C.2     1  UNL1        0.2556
     13 O          60.1767   85.0804    6.7399 O.2     1  UNL1       -0.2722
     14 C          61.7347   85.8793    9.1760 C.3     1  UNL1        0.0955
     15 C          62.5137   86.2789   10.3941 C.3     1  UNL1        0.0459
     16 C          58.5402   87.0588    7.1378 C.3     1  UNL1        0.2232
     17 O          58.6730   88.5164    6.8097 O.3     1  UNL1       -0.3737
     18 H          58.9235   89.0062    7.6086 H       1  UNL1        0.2110
     19 N          64.4813   90.3775   14.8995 N.pl3   1  UNL1       -0.2806
     20 H          63.9462   90.7528   15.6357 H       1  UNL1        0.1551
     21 C          65.8124   90.9786   14.5577 C.ar    1  UNL1        0.2208
     22 N          66.8876   91.0620   15.6003 N.ar    1  UNL1       -0.2111
     23 C          68.2187   91.6631   15.2586 C.ar    1  UNL1        0.1147
     24 C          68.4746   92.1808   13.8742 C.ar    1  UNL1        0.0946
     25 CL         69.8057   92.7819   13.5324 Cl      1  UNL1       -0.0790
     26 C          67.3994   92.0974   12.8315 C.ar    1  UNL1        0.0992
     27 N          66.0684   91.4963   13.1733 N.ar    1  UNL1       -0.2126
     28 C          67.6553   92.6151   11.4472 C.ar    1  UNL1        0.0572
     29 C          68.5120   91.9594   10.4050 C.ar    1  UNL1        0.1235
     30 N          68.4856   92.8185    9.1757 N.ar    1  UNL1       -0.1634
     31 N          67.6127   94.0052    9.4581 N.ar    1  UNL1       -0.2281
     32 C          67.2188   95.1840    8.6183 C.ar    1  UNL1        0.1004
     33 C          66.3117   96.2370    9.1824 C.ar    1  UNL1        0.0207
     34 C          65.7985   96.1113   10.5863 C.ar    1  UNL1        0.0031
     35 C          66.1925   94.9326   11.4261 C.ar    1  UNL1        0.0193
     36 C          67.0995   93.8795   10.8620 C.ar    1  UNL1        0.0858
@<TRIPOS>BOND
     1     1     2    1
     2     2     3   ar
     3     3     4   ar
     4     4     8    1
     5     8     9    1
     6     9    10    1
     7    10    11    1
     8    11    12   am
     9    12    13    2
    10    12    16    1
    11    16    17    1
    12    11    14    1
    13    14    15    1
    14     4     5   ar
    15     5     6    1
    16     5     7   ar
    17     7    19    1
    18    19    21    1
    19    21    22   ar
    20    22    23   ar
    21    23    24   ar
    22    24    25    1
    23    24    26   ar
    24    26    28    1
    25    28    29   ar
    26    29    30   ar
    27    30    31   ar
    28    31    32   ar
    29    32    33   ar
    30    33    34   ar
    31    34    35   ar
    32    35    36   ar
    33    26    27   ar
    34     7     2   ar
    35    27    21   ar
    36    15     8    1
    37    36    28   ar
    38    36    31   ar
    39    17    18    1
    40    19    20    1
@<TRIPOS>MOLECULE
*****
 36 40 0 0 0
SMALL
GASTEIGER

@<TRIPOS>ATOM
      1 C          63.1014   83.8810   12.7890 C.3     1  UNL1        0.0553
      2 C          62.7578   85.2317   12.2346 C.ar    1  UNL1        0.0935
      3 N          61.9391   85.4984   11.0063 N.ar    1  UNL1       -0.1727
      4 N          61.8478   86.9845   10.8237 N.ar    1  UNL1       -0.2558
      5 C          62.6100   87.6363   11.9390 C.ar    1  UNL1        0.0704
      6 C          62.7800   89.1121   12.1461 C.3     1  UNL1        0.0531
      7 C          63.1724   86.5530   12.8111 C.ar    1  UNL1        0.0792
      8 C          61.1217   87.6942    9.7195 C.3     1  UNL1        0.1083
      9 C          61.4867   89.1060    9.3681 C.3     1  UNL1        0.0459
     10 C          60.7606   89.8158    8.2639 C.3     1  UNL1        0.0955
     11 N          59.6696   89.1135    7.5112 N.am    1  UNL1       -0.2774
     12 C          58.9435   89.8233    6.4070 C.2     1  UNL1        0.2556
     13 O          57.8524   89.1211    5.6543 O.2     1  UNL1       -0.2722
     14 C          59.3046   87.7017    7.8626 C.3     1  UNL1        0.0955
     15 C          60.0307   86.9921    8.9668 C.3     1  UNL1        0.0459
     16 C          59.3085   91.2351    6.0556 C.3     1  UNL1        0.2232
     17 O          58.3841   92.0606    5.2106 O.3     1  UNL1       -0.3737
     18 H          58.3333   91.6796    4.3200 H       1  UNL1        0.2110
     19 N          64.0036   86.7554   14.0432 N.pl3   1  UNL1       -0.2806
     20 H          64.5494   86.0158   14.3958 H       1  UNL1        0.1551
     21 C          64.0032   88.0847   14.7382 C.ar    1  UNL1        0.2208
     22 N          63.1834   88.2822   15.9787 N.ar    1  UNL1       -0.2111
     23 C          63.1831   89.6114   16.6737 C.ar    1  UNL1        0.1147
     24 C          64.0025   90.7432   16.1282 C.ar    1  UNL1        0.0946
     25 CL         64.0021   92.0725   16.8232 Cl      1  UNL1       -0.0790
     26 C          64.8223   90.5457   14.8876 C.ar    1  UNL1        0.0992
     27 N          64.8226   89.2165   14.1927 N.ar    1  UNL1       -0.2126
     28 C          65.6417   91.6775   14.3421 C.ar    1  UNL1        0.0572
     29 C          66.7129   92.4256   15.0788 C.ar    1  UNL1        0.1235
     30 N          67.2670   93.4704   14.1561 N.ar    1  UNL1       -0.1634
     31 N          66.5382   93.3680   12.8490 N.ar    1  UNL1       -0.2281
     32 C          66.6595   94.1405   11.5690 C.ar    1  UNL1        0.1004
     33 C          65.7763   93.8050   10.4040 C.ar    1  UNL1        0.0207
     34 C          64.7718   92.6969   10.5189 C.ar    1  UNL1        0.0031
     35 C          64.6505   91.9244   11.7989 C.ar    1  UNL1        0.0193
     36 C          65.5337   92.2599   12.9639 C.ar    1  UNL1        0.0858
@<TRIPOS>BOND
     1     1     2    1
     2     2     3   ar
     3     3     4   ar
     4     4     8    1
     5     8     9    1
     6     9    10    1
     7    10    11    1
     8    11    12   am
     9    12    13    2
    10    12    16    1
    11    16    17    1
    12    11    14    1
    13    14    15    1
    14     4     5   ar
    15     5     6    1
    16     5     7   ar
    17     7    19    1
    18    19    21    1
    19    21    22   ar
    20    22    23   ar
    21    23    24   ar
    22    24    25    1
    23    24    26   ar
    24    26    28    1
    25    28    29   ar
    26    29    30   ar
    27    30    31   ar
    28    31    32   ar
    29    32    33   ar
    30    33    34   ar
    31    34    35   ar
    32    35    36   ar
    33    26    27   ar
    34     7     2   ar
    35    27    21   ar
    36    15     8    1
    37    36    28   ar
    38    36    31   ar
    39    17    18    1
    40    19    20    1
@<TRIPOS>MOLECULE
*****
 36 40 0 0 0
SMALL
GASTEIGER

@<TRIPOS>ATOM
      1 C          62.1007   85.7422   17.1729 C.3     1  UNL1        0.0553
      2 C          62.6179   85.1415   15.8995 C.ar    1  UNL1        0.0935
      3 N          62.2742   83.7840   15.3617 N.ar    1  UNL1       -0.1727
      4 N          63.0135   83.5963   14.0700 N.ar    1  UNL1       -0.2558
      5 C          63.8142   84.8377   13.8096 C.ar    1  UNL1        0.0704
      6 C          64.7032   85.0814   12.6264 C.3     1  UNL1        0.0531
      7 C          63.5697   85.7927   14.9402 C.ar    1  UNL1        0.0792
      8 C          62.9613   82.3807   13.1929 C.3     1  UNL1        0.1083
      9 C          62.7854   81.0220   13.8038 C.3     1  UNL1        0.0459
     10 C          62.7332   79.8063   12.9266 C.3     1  UNL1        0.0955
     11 N          62.8569   79.9493   11.4386 N.am    1  UNL1       -0.2774
     12 C          62.8048   78.7336   10.5614 C.2     1  UNL1        0.2556
     13 O          62.9285   78.8765    9.0734 O.2     1  UNL1       -0.2722
     14 C          63.0328   81.3079   10.8277 C.3     1  UNL1        0.0955
     15 C          63.0850   82.5236   11.7049 C.3     1  UNL1        0.0459
     16 C          62.6289   77.3750   11.1723 C.3     1  UNL1        0.2232
     17 O          62.7799   76.1464   10.3251 O.3     1  UNL1       -0.3737
     18 H          62.0704   76.1203    9.6641 H       1  UNL1        0.2110
     19 N          64.1713   87.1590   15.0861 N.pl3   1  UNL1       -0.2806
     20 H          64.7030   87.3800   15.8847 H       1  UNL1        0.1551
     21 C          63.9630   88.1885   14.0153 C.ar    1  UNL1        0.2208
     22 N          62.9998   87.9227   12.8966 N.ar    1  UNL1       -0.2111
     23 C          62.7915   88.9522   11.8258 C.ar    1  UNL1        0.1147
     24 C          63.5462   90.2476   11.8738 C.ar    1  UNL1        0.0946
     25 CL         63.3379   91.2772   10.8030 Cl      1  UNL1       -0.0790
     26 C          64.5094   90.5135   12.9926 C.ar    1  UNL1        0.0992
     27 N          64.7177   89.4839   14.0633 N.ar    1  UNL1       -0.2126
     28 C          65.2642   91.8089   13.0406 C.ar    1  UNL1        0.0572
     29 C          65.2073   92.9010   12.0140 C.ar    1  UNL1        0.1235
     30 N          66.1163   94.0066   12.4626 N.ar    1  UNL1       -0.1634
     31 N          66.7350   93.5978   13.7664 N.ar    1  UNL1       -0.2281
     32 C          67.7099   94.2869   14.6746 C.ar    1  UNL1        0.1004
     33 C          68.1581   93.6177   15.9399 C.ar    1  UNL1        0.0207
     34 C          67.6315   92.2594   16.2972 C.ar    1  UNL1        0.0031
     35 C          66.6566   91.5703   15.3891 C.ar    1  UNL1        0.0193
     36 C          66.2084   92.2395   14.1237 C.ar    1  UNL1        0.0858
@<TRIPOS>BOND
     1     1     2    1
     2     2     3   ar
     3     3     4   ar
     4     4     8    1
     5     8     9    1
     6     9    10    1
     7    10    11    1
     8    11    12   am
     9    12    13    2
    10    12    16    1
    11    16    17    1
    12    11    14    1
    13    14    15    1
    14     4     5   ar
    15     5     6    1
    16     5     7   ar
    17     7    19    1
    18    19    21    1
    19    21    22   ar
    20    22    23   ar
    21    23    24   ar
    22    24    25    1
    23    24    26   ar
    24    26    28    1
    25    28    29   ar
    26    29    30   ar
    27    30    31   ar
    28    31    32   ar
    29    32    33   ar
    30    33    34   ar
    31    34    35   ar
    32    35    36   ar
    33    26    27   ar
    34     7     2   ar
    35    27    21   ar
    36    15     8    1
    37    36    28   ar
    38    36    31   ar
    39    17    18    1
    40    19    20    1
