@<TRIPOS>MOLECULE
*****
 33 37 0 0 0
SMALL
GASTEIGER

@<TRIPOS>ATOM
      1 C          60.4310   94.6086   -2.3525 C.3     1  UNL1        0.1272
      2 C          61.6833   94.2485   -1.6095 C.2     1  UNL1        0.0260
      3 C          63.1633   94.0493   -1.7507 C.2     1  UNL1        0.0757
      4 N          63.7096   93.6658   -0.4074 N.2     1  UNL1       -0.1569
      5 N          62.5673   93.6281    0.5641 N.2     1  UNL1       -0.1631
      6 C          61.3149   93.9882   -0.1789 C.3     1  UNL1        0.2225
      7 C          59.8350   94.1874   -0.0377 C.2     1  UNL1        0.2581
      8 O          59.0407   94.0308    1.2251 O.2     1  UNL1       -0.2720
      9 N          59.2886   94.5709   -1.3811 N.am    1  UNL1       -0.2508
     10 C          59.4851   94.1133   -4.7210 C.ar    1  UNL1        0.1366
     11 C          59.3915   94.4518   -6.1794 C.ar    1  UNL1        0.0366
     12 C          60.1503   95.6239   -6.7275 C.ar    1  UNL1        0.0031
     13 C          61.0027   96.4575   -5.8173 C.ar    1  UNL1       -0.0001
     14 C          61.0962   96.1191   -4.3589 C.ar    1  UNL1        0.0007
     15 C          60.3374   94.9470   -3.8108 C.ar    1  UNL1        0.0340
     16 C          57.4680   92.4807   -4.8472 C.3     1  UNL1        0.2525
     17 O          58.7263   92.9412   -4.1729 O.3     1  UNL1       -0.4717
     18 C          57.8522   94.8649   -1.6975 C.ar    1  UNL1        0.0544
     19 C          56.8058   93.8122   -1.4810 C.ar    1  UNL1        0.0151
     20 C          55.3694   94.1062   -1.7974 C.ar    1  UNL1        0.0060
     21 C          54.9793   95.4531   -2.3302 C.ar    1  UNL1        0.0562
     22 C          56.0256   96.5058   -2.5467 C.ar    1  UNL1        0.0060
     23 C          57.4621   96.2117   -2.2303 C.ar    1  UNL1        0.0151
     24 C          53.5428   95.7471   -2.6466 C.ar    1  UNL1        0.2597
     25 N          52.9736   95.9950   -4.0121 N.ar    1  UNL1       -0.1911
     26 C          51.5024   96.2460   -3.8625 C.ar    1  UNL1        0.1812
     27 C          50.5402   96.5384   -4.9754 C.3     1  UNL1        0.0773
     28 N          51.1623   96.1532   -2.4045 N.ar    1  UNL1       -0.0602
     29 O          52.4233   95.8449   -1.6530 O.2     1  UNL1       -0.3328
     30 C          63.9576   94.2059   -3.0135 C.3     1  UNL1        0.0367
     31 C          64.4016   95.5668   -2.5654 C.3     1  UNL1        0.0060
     32 C          63.5136   92.8450   -3.4616 C.3     1  UNL1        0.0060
     33 C          64.7518   94.3626   -4.2763 C.3     1  UNL1        0.0060
@<TRIPOS>BOND
     1    16    17    1
     2    17    10    1
     3    10    11   ar
     4    11    12   ar
     5    12    13   ar
     6    13    14   ar
     7    14    15   ar
     8    15     1    1
     9     1     2    1
    10     2     3    2
    11     3    30    1
    12    30    31    1
    13    30    32    1
    14    30    33    1
    15     3     4    1
    16     4     5    2
    17     5     6    1
    18     6     7    1
    19     7     8    2
    20     7     9   am
    21     9    18    1
    22    18    19   ar
    23    19    20   ar
    24    20    21   ar
    25    21    24    1
    26    24    25   ar
    27    25    26   ar
    28    26    27    1
    29    26    28   ar
    30    28    29   ar
    31    21    22   ar
    32    22    23   ar
    33    15    10   ar
    34     9     1    1
    35    23    18   ar
    36     6     2    1
    37    29    24   ar
@<TRIPOS>MOLECULE
*****
 33 37 0 0 0
SMALL
GASTEIGER

@<TRIPOS>ATOM
      1 C          61.2557   94.0361    0.4554 C.3     1  UNL1        0.1272
      2 C          62.1176   93.4212    1.5179 C.2     1  UNL1        0.0260
      3 C          63.5330   93.2514    1.9846 C.2     1  UNL1        0.0757
      4 N          63.5122   92.4262    3.2370 N.2     1  UNL1       -0.1569
      5 N          62.0840   92.0859    3.5443 N.2     1  UNL1       -0.1631
      6 C          61.2221   92.7009    2.4818 C.3     1  UNL1        0.2225
      7 C          59.8067   92.8706    2.0151 C.2     1  UNL1        0.2581
      8 O          58.5850   92.3130    2.6834 O.2     1  UNL1       -0.2720
      9 N          59.8274   93.6959    0.7626 N.am    1  UNL1       -0.2508
     10 C          61.3378   94.4694   -2.1050 C.ar    1  UNL1        0.1366
     11 C          61.8195   95.2820   -3.2702 C.ar    1  UNL1        0.0366
     12 C          62.7008   96.4738   -3.0403 C.ar    1  UNL1        0.0031
     13 C          63.1005   96.8531   -1.6451 C.ar    1  UNL1       -0.0001
     14 C          62.6187   96.0404   -0.4799 C.ar    1  UNL1        0.0007
     15 C          61.7374   94.8487   -0.7098 C.ar    1  UNL1        0.0340
     16 C          59.4609   93.2863   -3.4570 C.3     1  UNL1        0.2525
     17 O          60.4565   93.2776   -2.3350 O.3     1  UNL1       -0.4717
     18 C          58.6303   94.1084   -0.0413 C.ar    1  UNL1        0.0544
     19 C          58.4126   95.5547   -0.3744 C.ar    1  UNL1        0.0151
     20 C          57.2154   95.9673   -1.1783 C.ar    1  UNL1        0.0060
     21 C          56.2357   94.9335   -1.6493 C.ar    1  UNL1        0.0562
     22 C          56.4534   93.4872   -1.3163 C.ar    1  UNL1        0.0060
     23 C          57.6507   93.0747   -0.5123 C.ar    1  UNL1        0.0151
     24 C          55.0385   95.3461   -2.4533 C.ar    1  UNL1        0.2597
     25 N          53.6475   95.5411   -1.9268 N.ar    1  UNL1       -0.1911
     26 C          52.7713   95.9516   -3.0730 C.ar    1  UNL1        0.1812
     27 C          51.3034   96.2509   -2.9976 C.3     1  UNL1        0.0773
     28 N          53.6208   96.0103   -4.3079 N.ar    1  UNL1       -0.0602
     29 O          55.0220   95.6361   -3.9249 O.2     1  UNL1       -0.3328
     30 C          64.7547   93.8090    1.3163 C.3     1  UNL1        0.0367
     31 C          64.8296   94.8891    2.3544 C.3     1  UNL1        0.0060
     32 C          64.6798   92.7288    0.2782 C.3     1  UNL1        0.0060
     33 C          65.9764   94.3665    0.6480 C.3     1  UNL1        0.0060
@<TRIPOS>BOND
     1    16    17    1
     2    17    10    1
     3    10    11   ar
     4    11    12   ar
     5    12    13   ar
     6    13    14   ar
     7    14    15   ar
     8    15     1    1
     9     1     2    1
    10     2     3    2
    11     3    30    1
    12    30    31    1
    13    30    32    1
    14    30    33    1
    15     3     4    1
    16     4     5    2
    17     5     6    1
    18     6     7    1
    19     7     8    2
    20     7     9   am
    21     9    18    1
    22    18    19   ar
    23    19    20   ar
    24    20    21   ar
    25    21    24    1
    26    24    25   ar
    27    25    26   ar
    28    26    27    1
    29    26    28   ar
    30    28    29   ar
    31    21    22   ar
    32    22    23   ar
    33    15    10   ar
    34     9     1    1
    35    23    18   ar
    36     6     2    1
    37    29    24   ar
@<TRIPOS>MOLECULE
*****
 33 37 0 0 0
SMALL
GASTEIGER

@<TRIPOS>ATOM
      1 C          61.4968   94.3856   -2.1309 C.3     1  UNL1        0.1272
      2 C          62.5190   94.9326   -3.0826 C.2     1  UNL1        0.0260
      3 C          62.7186   95.4883   -4.4615 C.2     1  UNL1        0.0757
      4 N          64.1730   95.8177   -4.6225 N.2     1  UNL1       -0.1569
      5 N          64.8724   95.4657   -3.3431 N.2     1  UNL1       -0.1631
      6 C          63.8502   94.9186   -2.3913 C.3     1  UNL1        0.2225
      7 C          63.6507   94.3630   -1.0124 C.2     1  UNL1        0.2581
      8 O          64.7182   94.1706    0.0236 O.2     1  UNL1       -0.2720
      9 N          62.1961   94.0335   -0.8514 N.am    1  UNL1       -0.2508
     10 C          59.0792   95.3366   -2.1029 C.ar    1  UNL1        0.1366
     11 C          57.6146   95.1707   -2.3817 C.ar    1  UNL1        0.0366
     12 C          57.1032   93.8878   -2.9672 C.ar    1  UNL1        0.0031
     13 C          58.0563   92.7709   -3.2739 C.ar    1  UNL1       -0.0001
     14 C          59.5209   92.9368   -2.9951 C.ar    1  UNL1        0.0007
     15 C          60.0323   94.2197   -2.4097 C.ar    1  UNL1        0.0340
     16 C          59.5062   96.8550   -0.0385 C.3     1  UNL1        0.2525
     17 O          59.5906   96.6194   -1.5175 O.3     1  UNL1       -0.4717
     18 C          61.5538   93.4538    0.3738 C.ar    1  UNL1        0.0544
     19 C          60.0588   93.3840    0.4753 C.ar    1  UNL1        0.0151
     20 C          59.4165   92.8043    1.7005 C.ar    1  UNL1        0.0060
     21 C          60.2692   92.2943    2.8244 C.ar    1  UNL1        0.0562
     22 C          61.7641   92.3641    2.7230 C.ar    1  UNL1        0.0060
     23 C          62.4064   92.9438    1.4976 C.ar    1  UNL1        0.0151
     24 C          59.6268   91.7146    4.0497 C.ar    1  UNL1        0.2597
     25 N          60.2100   90.6502    4.9312 N.ar    1  UNL1       -0.1911
     26 C          59.2321   90.3753    6.0349 C.ar    1  UNL1        0.1812
     27 C          59.4105   89.3805    7.1433 C.3     1  UNL1        0.0773
     28 N          58.0446   91.2697    5.8354 N.ar    1  UNL1       -0.0602
     29 O          58.2885   92.0974    4.6085 O.2     1  UNL1       -0.3328
     30 C          61.6510   95.6807   -5.4976 C.3     1  UNL1        0.0367
     31 C          62.1839   94.5069   -6.2646 C.3     1  UNL1        0.0060
     32 C          61.1182   96.8544   -4.7305 C.3     1  UNL1        0.0060
     33 C          60.5835   95.8731   -6.5336 C.3     1  UNL1        0.0060
@<TRIPOS>BOND
     1    16    17    1
     2    17    10    1
     3    10    11   ar
     4    11    12   ar
     5    12    13   ar
     6    13    14   ar
     7    14    15   ar
     8    15     1    1
     9     1     2    1
    10     2     3    2
    11     3    30    1
    12    30    31    1
    13    30    32    1
    14    30    33    1
    15     3     4    1
    16     4     5    2
    17     5     6    1
    18     6     7    1
    19     7     8    2
    20     7     9   am
    21     9    18    1
    22    18    19   ar
    23    19    20   ar
    24    20    21   ar
    25    21    24    1
    26    24    25   ar
    27    25    26   ar
    28    26    27    1
    29    26    28   ar
    30    28    29   ar
    31    21    22   ar
    32    22    23   ar
    33    15    10   ar
    34     9     1    1
    35    23    18   ar
    36     6     2    1
    37    29    24   ar
@<TRIPOS>MOLECULE
*****
 33 37 0 0 0
SMALL
GASTEIGER

@<TRIPOS>ATOM
      1 C          62.1874   94.2639   -0.4259 C.3     1  UNL1        0.1272
      2 C          63.2928   94.9752   -1.1485 C.2     1  UNL1        0.0260
      3 C          63.6513   95.6854   -2.4202 C.2     1  UNL1        0.0757
      4 N          65.0814   96.1259   -2.3177 N.2     1  UNL1       -0.1569
      5 N          65.6069   95.6880   -0.9828 N.2     1  UNL1       -0.1631
      6 C          64.5015   94.9767   -0.2602 C.3     1  UNL1        0.2225
      7 C          64.1431   94.2665    1.0115 C.2     1  UNL1        0.2581
      8 O          65.0547   94.0370    2.1803 O.2     1  UNL1       -0.2720
      9 N          62.7128   93.8259    0.9090 N.am    1  UNL1       -0.2508
     10 C          59.7466   95.0847   -0.7708 C.ar    1  UNL1        0.1366
     11 C          58.3592   94.8522   -1.2917 C.ar    1  UNL1        0.0366
     12 C          58.0254   93.5665   -1.9885 C.ar    1  UNL1        0.0031
     13 C          59.0789   92.5133   -2.1645 C.ar    1  UNL1       -0.0001
     14 C          60.4662   92.7458   -1.6436 C.ar    1  UNL1        0.0007
     15 C          60.8001   94.0315   -0.9468 C.ar    1  UNL1        0.0340
     16 C          59.8806   96.4944    1.4075 C.3     1  UNL1        0.2525
     17 O          60.0804   96.3704   -0.0740 O.3     1  UNL1       -0.4717
     18 C          61.9432   93.0786    1.9574 C.ar    1  UNL1        0.0544
     19 C          62.5685   91.9064    2.6539 C.ar    1  UNL1        0.0151
     20 C          61.7989   91.1591    3.7023 C.ar    1  UNL1        0.0060
     21 C          60.4040   91.5840    4.0543 C.ar    1  UNL1        0.0562
     22 C          59.7787   92.7562    3.3579 C.ar    1  UNL1        0.0060
     23 C          60.5484   93.5035    2.3094 C.ar    1  UNL1        0.0151
     24 C          59.6344   90.8366    5.1027 C.ar    1  UNL1        0.2597
     25 N          60.1866   89.7873    6.0215 N.ar    1  UNL1       -0.1911
     26 C          59.0710   89.3096    6.9031 C.ar    1  UNL1        0.1812
     27 C          59.1782   88.2618    7.9711 C.3     1  UNL1        0.0773
     28 N          57.8294   90.0636    6.5291 N.ar    1  UNL1       -0.0602
     29 O          58.1775   91.0073    5.4165 O.2     1  UNL1       -0.3328
     30 C          62.7396   95.9149   -3.5890 C.3     1  UNL1        0.0367
     31 C          63.5700   94.9821   -4.4199 C.3     1  UNL1        0.0060
     32 C          61.9091   96.8476   -2.7582 C.3     1  UNL1        0.0060
     33 C          61.8279   96.1443   -4.7579 C.3     1  UNL1        0.0060
@<TRIPOS>BOND
     1    16    17    1
     2    17    10    1
     3    10    11   ar
     4    11    12   ar
     5    12    13   ar
     6    13    14   ar
     7    14    15   ar
     8    15     1    1
     9     1     2    1
    10     2     3    2
    11     3    30    1
    12    30    31    1
    13    30    32    1
    14    30    33    1
    15     3     4    1
    16     4     5    2
    17     5     6    1
    18     6     7    1
    19     7     8    2
    20     7     9   am
    21     9    18    1
    22    18    19   ar
    23    19    20   ar
    24    20    21   ar
    25    21    24    1
    26    24    25   ar
    27    25    26   ar
    28    26    27    1
    29    26    28   ar
    30    28    29   ar
    31    21    22   ar
    32    22    23   ar
    33    15    10   ar
    34     9     1    1
    35    23    18   ar
    36     6     2    1
    37    29    24   ar
@<TRIPOS>MOLECULE
*****
 33 37 0 0 0
SMALL
GASTEIGER

@<TRIPOS>ATOM
      1 C          63.0616   94.9760   -0.9174 C.3     1  UNL1        0.1272
      2 C          64.2738   95.6923   -1.4347 C.2     1  UNL1        0.0260
      3 C          64.8633   96.3671   -2.6376 C.2     1  UNL1        0.0757
      4 N          66.2350   96.8512   -2.2717 N.2     1  UNL1       -0.1569
      5 N          66.4933   96.4756   -0.8427 N.2     1  UNL1       -0.1631
      6 C          65.2812   95.7594   -0.3253 C.3     1  UNL1        0.2225
      7 C          64.6917   95.0845    0.8776 C.2     1  UNL1        0.2581
      8 O          65.3571   94.9223    2.2121 O.2     1  UNL1       -0.2720
      9 N          63.3198   94.6004    0.5117 N.am    1  UNL1       -0.2508
     10 C          61.7578   93.5059   -2.6171 C.ar    1  UNL1        0.1366
     11 C          60.5069   93.2161   -3.3926 C.ar    1  UNL1        0.0366
     12 C          59.3091   94.1067   -3.2440 C.ar    1  UNL1        0.0031
     13 C          59.3620   95.2870   -2.3198 C.ar    1  UNL1       -0.0001
     14 C          60.6130   95.5767   -1.5442 C.ar    1  UNL1        0.0007
     15 C          61.8108   94.6862   -1.6929 C.ar    1  UNL1        0.0340
     16 C          63.7681   92.6553   -4.0260 C.3     1  UNL1        0.2525
     17 O          62.9557   92.6154   -2.7657 O.3     1  UNL1       -0.4717
     18 C          62.3727   93.8691    1.4161 C.ar    1  UNL1        0.0544
     19 C          62.8978   92.8604    2.3944 C.ar    1  UNL1        0.0151
     20 C          61.9506   92.1291    3.2987 C.ar    1  UNL1        0.0060
     21 C          60.4782   92.4063    3.2249 C.ar    1  UNL1        0.0562
     22 C          59.9531   93.4150    2.2467 C.ar    1  UNL1        0.0060
     23 C          60.9004   94.1463    1.3423 C.ar    1  UNL1        0.0151
     24 C          59.5311   91.6750    4.1293 C.ar    1  UNL1        0.2597
     25 N          58.0580   91.9290    4.2543 N.ar    1  UNL1       -0.1911
     26 C          57.5072   90.9723    5.2698 C.ar    1  UNL1        0.1812
     27 C          56.0752   90.8775    5.7061 C.3     1  UNL1        0.0773
     28 N          58.6398   90.1269    5.7723 N.ar    1  UNL1       -0.0602
     29 O          59.8906   90.5612    5.0675 O.2     1  UNL1       -0.3328
     30 C          64.1978   96.5293   -3.9721 C.3     1  UNL1        0.0367
     31 C          65.4921   96.2040   -4.6570 C.3     1  UNL1        0.0060
     32 C          62.9036   96.8547   -3.2873 C.3     1  UNL1        0.0060
     33 C          63.5324   96.6916   -5.3067 C.3     1  UNL1        0.0060
@<TRIPOS>BOND
     1    16    17    1
     2    17    10    1
     3    10    11   ar
     4    11    12   ar
     5    12    13   ar
     6    13    14   ar
     7    14    15   ar
     8    15     1    1
     9     1     2    1
    10     2     3    2
    11     3    30    1
    12    30    31    1
    13    30    32    1
    14    30    33    1
    15     3     4    1
    16     4     5    2
    17     5     6    1
    18     6     7    1
    19     7     8    2
    20     7     9   am
    21     9    18    1
    22    18    19   ar
    23    19    20   ar
    24    20    21   ar
    25    21    24    1
    26    24    25   ar
    27    25    26   ar
    28    26    27    1
    29    26    28   ar
    30    28    29   ar
    31    21    22   ar
    32    22    23   ar
    33    15    10   ar
    34     9     1    1
    35    23    18   ar
    36     6     2    1
    37    29    24   ar
@<TRIPOS>MOLECULE
*****
 33 37 0 0 0
SMALL
GASTEIGER

@<TRIPOS>ATOM
      1 C          59.6468   94.5640   -3.5973 C.3     1  UNL1        0.1272
      2 C          60.1024   95.2991   -4.8229 C.2     1  UNL1        0.0260
      3 C          59.7055   95.7079   -6.2105 C.2     1  UNL1        0.0757
      4 N          60.8396   96.4885   -6.8059 N.2     1  UNL1       -0.1569
      5 N          61.9374   96.5622   -5.7863 N.2     1  UNL1       -0.1631
      6 C          61.4818   95.8271   -4.5607 C.3     1  UNL1        0.2225
      7 C          61.8786   95.4183   -3.1732 C.2     1  UNL1        0.2581
      8 O          63.1809   95.7346   -2.4993 O.2     1  UNL1       -0.2720
      9 N          60.7445   94.6376   -2.5777 N.am    1  UNL1       -0.2508
     10 C          57.0858   94.6842   -3.1766 C.ar    1  UNL1        0.1366
     11 C          55.7644   93.9961   -3.0013 C.ar    1  UNL1        0.0366
     12 C          55.6827   92.5000   -3.0715 C.ar    1  UNL1        0.0031
     13 C          56.9224   91.6918   -3.3170 C.ar    1  UNL1       -0.0001
     14 C          58.2438   92.3799   -3.4923 C.ar    1  UNL1        0.0007
     15 C          58.3255   93.8760   -3.4221 C.ar    1  UNL1        0.0340
     16 C          57.4563   96.8551   -1.7982 C.3     1  UNL1        0.2525
     17 O          57.1675   96.1803   -3.1064 O.3     1  UNL1       -0.4717
     18 C          60.7137   94.0363   -1.2039 C.ar    1  UNL1        0.0544
     19 C          61.8580   93.1903   -0.7296 C.ar    1  UNL1        0.0151
     20 C          61.8271   92.5889    0.6442 C.ar    1  UNL1        0.0060
     21 C          60.6518   92.8335    1.5438 C.ar    1  UNL1        0.0562
     22 C          59.5076   93.6794    1.0695 C.ar    1  UNL1        0.0060
     23 C          59.5385   94.2808   -0.3044 C.ar    1  UNL1        0.0151
     24 C          60.6210   92.2321    2.9176 C.ar    1  UNL1        0.2597
     25 N          59.3896   91.8772    3.6972 N.ar    1  UNL1       -0.1911
     26 C          59.8236   91.3058    5.0144 C.ar    1  UNL1        0.1812
     27 C          58.9172   90.8182    6.1056 C.3     1  UNL1        0.0773
     28 N          61.3232   91.3076    5.0489 N.ar    1  UNL1       -0.0602
     29 O          61.8160   91.8801    3.7530 O.2     1  UNL1       -0.3328
     30 C          58.4033   95.3916   -6.8843 C.3     1  UNL1        0.0367
     31 C          58.8905   94.0028   -7.1740 C.3     1  UNL1        0.0060
     32 C          57.9161   96.7804   -6.5946 C.3     1  UNL1        0.0060
     33 C          57.1010   95.0753   -7.5581 C.3     1  UNL1        0.0060
@<TRIPOS>BOND
     1    16    17    1
     2    17    10    1
     3    10    11   ar
     4    11    12   ar
     5    12    13   ar
     6    13    14   ar
     7    14    15   ar
     8    15     1    1
     9     1     2    1
    10     2     3    2
    11     3    30    1
    12    30    31    1
    13    30    32    1
    14    30    33    1
    15     3     4    1
    16     4     5    2
    17     5     6    1
    18     6     7    1
    19     7     8    2
    20     7     9   am
    21     9    18    1
    22    18    19   ar
    23    19    20   ar
    24    20    21   ar
    25    21    24    1
    26    24    25   ar
    27    25    26   ar
    28    26    27    1
    29    26    28   ar
    30    28    29   ar
    31    21    22   ar
    32    22    23   ar
    33    15    10   ar
    34     9     1    1
    35    23    18   ar
    36     6     2    1
    37    29    24   ar
@<TRIPOS>MOLECULE
*****
 33 37 0 0 0
SMALL
GASTEIGER

@<TRIPOS>ATOM
      1 C          59.9855   94.3288   -3.5164 C.3     1  UNL1        0.1272
      2 C          60.7383   94.5325   -4.7977 C.2     1  UNL1        0.0260
      3 C          60.6083   94.9794   -6.2237 C.2     1  UNL1        0.0757
      4 N          61.9564   94.8621   -6.8709 N.2     1  UNL1       -0.1569
      5 N          62.9196   94.3428   -5.8449 N.2     1  UNL1       -0.1631
      6 C          62.1668   94.1391   -4.5636 C.3     1  UNL1        0.2225
      7 C          62.2968   93.6923   -3.1376 C.2     1  UNL1        0.2581
      8 O          63.5541   93.2125   -2.4751 O.2     1  UNL1       -0.2720
      9 N          60.9486   93.8095   -2.4903 N.am    1  UNL1       -0.2508
     10 C          57.5446   93.4627   -3.3111 C.ar    1  UNL1        0.1366
     11 C          56.0849   93.7312   -3.0938 C.ar    1  UNL1        0.0366
     12 C          55.6063   95.1342   -2.8648 C.ar    1  UNL1        0.0031
     13 C          56.5875   96.2688   -2.8529 C.ar    1  UNL1       -0.0001
     14 C          58.0472   96.0003   -3.0701 C.ar    1  UNL1        0.0007
     15 C          58.5258   94.5973   -3.2992 C.ar    1  UNL1        0.0340
     16 C          57.3419   91.1913   -4.5560 C.3     1  UNL1        0.2525
     17 O          58.0232   92.0597   -3.5402 O.3     1  UNL1       -0.4717
     18 C          60.6212   93.4675   -1.0671 C.ar    1  UNL1        0.0544
     19 C          60.2981   94.5579   -0.0889 C.ar    1  UNL1        0.0151
     20 C          59.9707   94.2160    1.3343 C.ar    1  UNL1        0.0060
     21 C          59.9663   92.7835    1.7795 C.ar    1  UNL1        0.0562
     22 C          60.2893   91.6931    0.8015 C.ar    1  UNL1        0.0060
     23 C          60.6168   92.0352   -0.6219 C.ar    1  UNL1        0.0151
     24 C          59.6388   92.4415    3.2029 C.ar    1  UNL1        0.2597
     25 N          59.9741   91.1566    3.9004 N.ar    1  UNL1       -0.1911
     26 C          59.4611   91.2453    5.3072 C.ar    1  UNL1        0.1812
     27 C          59.5795   90.1811    6.3576 C.3     1  UNL1        0.0773
     28 N          58.8088   92.5851    5.4790 N.ar    1  UNL1       -0.0602
     29 O          58.9187   93.3244    4.1785 O.2     1  UNL1       -0.3328
     30 C          59.3510   95.4592   -6.8862 C.3     1  UNL1        0.0367
     31 C          59.8994   96.8550   -6.9161 C.3     1  UNL1        0.0060
     32 C          58.8025   94.0634   -6.8562 C.3     1  UNL1        0.0060
     33 C          58.0936   95.9390   -7.5486 C.3     1  UNL1        0.0060
@<TRIPOS>BOND
     1    16    17    1
     2    17    10    1
     3    10    11   ar
     4    11    12   ar
     5    12    13   ar
     6    13    14   ar
     7    14    15   ar
     8    15     1    1
     9     1     2    1
    10     2     3    2
    11     3    30    1
    12    30    31    1
    13    30    32    1
    14    30    33    1
    15     3     4    1
    16     4     5    2
    17     5     6    1
    18     6     7    1
    19     7     8    2
    20     7     9   am
    21     9    18    1
    22    18    19   ar
    23    19    20   ar
    24    20    21   ar
    25    21    24    1
    26    24    25   ar
    27    25    26   ar
    28    26    27    1
    29    26    28   ar
    30    28    29   ar
    31    21    22   ar
    32    22    23   ar
    33    15    10   ar
    34     9     1    1
    35    23    18   ar
    36     6     2    1
    37    29    24   ar
@<TRIPOS>MOLECULE
*****
 33 37 0 0 0
SMALL
GASTEIGER

@<TRIPOS>ATOM
      1 C          62.9409   87.3599   12.0562 C.3     1  UNL1        0.1272
      2 C          63.3523   88.6991   12.5923 C.2     1  UNL1        0.0260
      3 C          63.2810   90.1775   12.3492 C.2     1  UNL1        0.0757
      4 N          64.0180   90.8658   13.4597 N.2     1  UNL1       -0.1569
      5 N          64.5447   89.8128   14.3890 N.2     1  UNL1       -0.1631
      6 C          64.1333   88.4736   13.8529 C.3     1  UNL1        0.2225
      7 C          64.2045   86.9952   14.0960 C.2     1  UNL1        0.2581
      8 O          64.8920   86.3231   15.2473 O.2     1  UNL1       -0.2720
      9 N          63.4675   86.3068   12.9855 N.am    1  UNL1       -0.2508
     10 C          60.6765   87.4316   10.7843 C.ar    1  UNL1        0.1366
     11 C          59.8785   87.1882    9.5377 C.ar    1  UNL1        0.0366
     12 C          60.5468   86.6297    8.3164 C.ar    1  UNL1        0.0031
     13 C          62.0131   86.3146    8.3418 C.ar    1  UNL1       -0.0001
     14 C          62.8111   86.5581    9.5884 C.ar    1  UNL1        0.0007
     15 C          62.1428   87.1166   10.8096 C.ar    1  UNL1        0.0340
     16 C          58.7749   88.8326   11.8666 C.3     1  UNL1        0.2525
     17 O          60.0082   87.9901   12.0056 O.3     1  UNL1       -0.4717
     18 C          63.2887   84.8256   12.8314 C.ar    1  UNL1        0.0544
     19 C          63.8823   84.1173   11.6499 C.ar    1  UNL1        0.0151
     20 C          63.7035   82.6361   11.4958 C.ar    1  UNL1        0.0060
     21 C          62.9310   81.8629   12.5233 C.ar    1  UNL1        0.0562
     22 C          62.3374   82.5711   13.7048 C.ar    1  UNL1        0.0060
     23 C          62.5163   84.0525   13.8589 C.ar    1  UNL1        0.0151
     24 C          62.7522   80.3816   12.3692 C.ar    1  UNL1        0.2597
     25 N          62.9813   79.5917   11.1148 N.ar    1  UNL1       -0.1911
     26 C          62.6835   78.1520   11.4127 C.ar    1  UNL1        0.1812
     27 C          62.7817   77.0123   10.4425 C.3     1  UNL1        0.0773
     28 N          62.2704   78.0523   12.8513 N.ar    1  UNL1       -0.0602
     29 O          62.3128   79.4302   13.4424 O.2     1  UNL1       -0.3328
     30 C          62.5935   90.8497   11.1979 C.3     1  UNL1        0.0367
     31 C          63.9101   90.9880   10.4925 C.3     1  UNL1        0.0060
     32 C          61.2770   90.7113   11.9033 C.3     1  UNL1        0.0060
     33 C          61.9060   91.5218   10.0466 C.3     1  UNL1        0.0060
@<TRIPOS>BOND
     1    16    17    1
     2    17    10    1
     3    10    11   ar
     4    11    12   ar
     5    12    13   ar
     6    13    14   ar
     7    14    15   ar
     8    15     1    1
     9     1     2    1
    10     2     3    2
    11     3    30    1
    12    30    31    1
    13    30    32    1
    14    30    33    1
    15     3     4    1
    16     4     5    2
    17     5     6    1
    18     6     7    1
    19     7     8    2
    20     7     9   am
    21     9    18    1
    22    18    19   ar
    23    19    20   ar
    24    20    21   ar
    25    21    24    1
    26    24    25   ar
    27    25    26   ar
    28    26    27    1
    29    26    28   ar
    30    28    29   ar
    31    21    22   ar
    32    22    23   ar
    33    15    10   ar
    34     9     1    1
    35    23    18   ar
    36     6     2    1
    37    29    24   ar
@<TRIPOS>MOLECULE
*****
 33 37 0 0 0
SMALL
GASTEIGER

@<TRIPOS>ATOM
      1 C          63.0300   87.8566   12.3654 C.3     1  UNL1        0.1272
      2 C          63.6779   89.1696   12.6914 C.2     1  UNL1        0.0260
      3 C          63.8852   90.5739   12.2068 C.2     1  UNL1        0.0757
      4 N          64.7262   91.2940   13.2188 N.2     1  UNL1       -0.1569
      5 N          65.0387   90.3347   14.3288 N.2     1  UNL1       -0.1631
      6 C          64.3908   89.0217   14.0028 C.3     1  UNL1        0.2225
      7 C          64.1835   87.6173   14.4874 C.2     1  UNL1        0.2581
      8 O          64.7226   87.0352   15.7604 O.2     1  UNL1       -0.2720
      9 N          63.3424   86.8972   13.4754 N.am    1  UNL1       -0.2508
     10 C          60.7347   87.8103   11.1489 C.ar    1  UNL1        0.1366
     11 C          59.9178   87.5094    9.9273 C.ar    1  UNL1        0.0366
     12 C          60.5790   86.9540    8.7009 C.ar    1  UNL1        0.0031
     13 C          62.0573   86.6993    8.6959 C.ar    1  UNL1       -0.0001
     14 C          62.8742   87.0002    9.9175 C.ar    1  UNL1        0.0007
     15 C          62.2130   87.5557   11.1439 C.ar    1  UNL1        0.0340
     16 C          58.8402   89.2098   12.2454 C.3     1  UNL1        0.2525
     17 O          60.0735   88.3658   12.3753 O.3     1  UNL1       -0.4717
     18 C          62.8928   85.4687   13.5587 C.ar    1  UNL1        0.0544
     19 C          62.4252   84.9046   14.8677 C.ar    1  UNL1        0.0151
     20 C          61.9756   83.4761   14.9510 C.ar    1  UNL1        0.0060
     21 C          61.9936   82.6114   13.7254 C.ar    1  UNL1        0.0562
     22 C          62.4612   83.1753   12.4164 C.ar    1  UNL1        0.0060
     23 C          62.9108   84.6040   12.3332 C.ar    1  UNL1        0.0151
     24 C          61.5440   81.1828   13.8088 C.ar    1  UNL1        0.2597
     25 N          60.1739   80.7109   14.1963 N.ar    1  UNL1       -0.1911
     26 C          60.1686   79.2118   14.1463 C.ar    1  UNL1        0.1812
     27 C          59.0015   78.3232   14.4598 C.3     1  UNL1        0.0773
     28 N          61.5354   78.7572   13.7278 N.ar    1  UNL1       -0.0602
     29 O          62.3855   79.9753   13.5192 O.2     1  UNL1       -0.3328
     30 C          63.3461   91.1560   10.9338 C.3     1  UNL1        0.0367
     31 C          64.7393   91.5107   10.5060 C.3     1  UNL1        0.0060
     32 C          61.9528   90.8013   11.3616 C.3     1  UNL1        0.0060
     33 C          62.8070   91.7381    9.6608 C.3     1  UNL1        0.0060
@<TRIPOS>BOND
     1    16    17    1
     2    17    10    1
     3    10    11   ar
     4    11    12   ar
     5    12    13   ar
     6    13    14   ar
     7    14    15   ar
     8    15     1    1
     9     1     2    1
    10     2     3    2
    11     3    30    1
    12    30    31    1
    13    30    32    1
    14    30    33    1
    15     3     4    1
    16     4     5    2
    17     5     6    1
    18     6     7    1
    19     7     8    2
    20     7     9   am
    21     9    18    1
    22    18    19   ar
    23    19    20   ar
    24    20    21   ar
    25    21    24    1
    26    24    25   ar
    27    25    26   ar
    28    26    27    1
    29    26    28   ar
    30    28    29   ar
    31    21    22   ar
    32    22    23   ar
    33    15    10   ar
    34     9     1    1
    35    23    18   ar
    36     6     2    1
    37    29    24   ar
