@<TRIPOS>MOLECULE
*****
 28 32 0 0 0
SMALL
GASTEIGER

@<TRIPOS>ATOM
      1 C          64.6634   90.5239   13.2770 C.3     1  UNL1        0.0581
      2 C          63.6977   91.0380   12.2509 C.3     1  UNL1        0.0163
      3 C          62.8525   89.8870   11.7921 C.3     1  UNL1        0.0059
      4 C          63.2959   88.6614   12.5347 C.3     1  UNL1        0.0273
      5 C          63.9165   87.6005   13.3945 C.3     1  UNL1        0.0336
      6 C          63.5710   86.1432   13.4776 C.ar    1  UNL1        0.0127
      7 C          64.4403   85.4296   14.4700 C.ar    1  UNL1       -0.0012
      8 C          64.2580   83.9596   14.7061 C.ar    1  UNL1       -0.0001
      9 C          63.2063   83.2032   13.9499 C.ar    1  UNL1        0.0031
     10 C          62.3370   83.9169   12.9574 C.ar    1  UNL1        0.0372
     11 C          62.5194   85.3869   12.7213 C.ar    1  UNL1        0.1413
     12 O          61.5536   85.9010   11.6952 O.3     1  UNL1       -0.4541
     13 C          61.4008   87.2985   11.1719 C.ar    1  UNL1        0.1412
     14 C          60.3085   87.3838   10.1474 C.ar    1  UNL1        0.0372
     15 C          59.9916   88.6975    9.4966 C.ar    1  UNL1        0.0031
     16 C          60.7669   89.9260    9.8702 C.ar    1  UNL1       -0.0001
     17 C          61.8593   89.8407   10.8947 C.ar    1  UNL1       -0.0013
     18 C          62.1763   88.5269   11.5455 C.ar    1  UNL1        0.0121
     19 C          64.4151   89.0550   13.4524 C.3     1  UNL1        0.0204
     20 C          67.7618   92.9604   15.4481 C.2     1  UNL1       -0.0097
     21 C          68.0356   92.4649   14.0590 C.2     1  UNL1       -0.0119
     22 C          67.0028   91.6528   13.3353 C.3     1  UNL1        0.0986
     23 N          65.6962   91.3361   14.0007 N.3     1  UNL1       -0.2700
     24 C          65.4225   91.8317   15.3898 C.3     1  UNL1        0.0771
     25 C          66.4553   92.6438   16.1134 C.3     1  UNL1        0.0445
     26 O          69.9821   93.0965   16.7904 O.co2   1  UNL1       -0.5449
     27 C          68.7946   93.7726   16.1717 C.2     1  UNL1        0.0687
     28 O          68.6400   95.2609   16.2768 O.co2   1  UNL1       -0.5449
@<TRIPOS>UNITY_ATOM_ATTR
26 1
charge -1
@<TRIPOS>BOND
     1    26    27   ar
     2    27    28   ar
     3    27    20    1
     4    20    21    2
     5    21    22    1
     6    22    23    1
     7    23     1    1
     8     1     2    1
     9     2     3    1
    10     3     4    1
    11     4     5    1
    12     5     6    1
    13     6     7   ar
    14     7     8   ar
    15     8     9   ar
    16     9    10   ar
    17    10    11   ar
    18    11    12    1
    19    12    13    1
    20    13    14   ar
    21    14    15   ar
    22    15    16   ar
    23    16    17   ar
    24    17    18   ar
    25     4    19    1
    26    23    24    1
    27    24    25    1
    28    25    20    1
    29    19     1    1
    30    18     4    1
    31    11     6   ar
    32    18    13   ar
@<TRIPOS>MOLECULE
*****
 28 32 0 0 0
SMALL
GASTEIGER

@<TRIPOS>ATOM
      1 C          63.5537   89.9866   12.1027 C.3     1  UNL1        0.0581
      2 C          62.6215   90.4462   11.0212 C.3     1  UNL1        0.0163
      3 C          61.9435   89.2369   10.4489 C.3     1  UNL1        0.0059
      4 C          62.4567   88.0298   11.1766 C.3     1  UNL1        0.0273
      5 C          63.1187   86.9991   12.0424 C.3     1  UNL1        0.0336
      6 C          62.9265   85.5115   12.0389 C.ar    1  UNL1        0.0127
      7 C          63.7872   84.8453   13.0710 C.ar    1  UNL1       -0.0012
      8 C          63.7461   83.3547   13.2330 C.ar    1  UNL1       -0.0001
      9 C          62.8443   82.5302   12.3629 C.ar    1  UNL1        0.0031
     10 C          61.9836   83.1965   11.3308 C.ar    1  UNL1        0.0372
     11 C          62.0247   84.6871   11.1688 C.ar    1  UNL1        0.1413
     12 O          61.0924   85.1467   10.0873 O.3     1  UNL1       -0.4541
     13 C          60.8317   86.5442    9.6087 C.ar    1  UNL1        0.1412
     14 C          59.8200   86.5646    8.5014 C.ar    1  UNL1        0.0372
     15 C          59.4155   87.8680    7.8790 C.ar    1  UNL1        0.0031
     16 C          60.0227   89.1510    8.3638 C.ar    1  UNL1       -0.0001
     17 C          61.0344   89.1307    9.4711 C.ar    1  UNL1       -0.0013
     18 C          61.4389   87.8273   10.0935 C.ar    1  UNL1        0.0121
     19 C          63.4519   88.4932   12.1988 C.3     1  UNL1        0.0204
     20 C          66.1927   92.6250   14.6176 C.2     1  UNL1       -0.0097
     21 C          65.4403   91.4933   15.2525 C.2     1  UNL1       -0.0119
     22 C          64.5606   90.6138   14.4142 C.3     1  UNL1        0.0986
     23 N          64.4334   90.8661   12.9410 N.3     1  UNL1       -0.2700
     24 C          65.1859   91.9979   12.3062 C.3     1  UNL1        0.0771
     25 C          66.0655   92.8773   13.1445 C.3     1  UNL1        0.0445
     26 O          67.8518   94.6146   14.8154 O.co2   1  UNL1       -0.5449
     27 C          67.0724   93.5045   15.4559 C.2     1  UNL1        0.0687
     28 O          67.1726   93.2740   16.9347 O.co2   1  UNL1       -0.5449
@<TRIPOS>UNITY_ATOM_ATTR
26 1
charge -1
@<TRIPOS>BOND
     1    26    27   ar
     2    27    28   ar
     3    27    20    1
     4    20    21    2
     5    21    22    1
     6    22    23    1
     7    23     1    1
     8     1     2    1
     9     2     3    1
    10     3     4    1
    11     4     5    1
    12     5     6    1
    13     6     7   ar
    14     7     8   ar
    15     8     9   ar
    16     9    10   ar
    17    10    11   ar
    18    11    12    1
    19    12    13    1
    20    13    14   ar
    21    14    15   ar
    22    15    16   ar
    23    16    17   ar
    24    17    18   ar
    25     4    19    1
    26    23    24    1
    27    24    25    1
    28    25    20    1
    29    19     1    1
    30    18     4    1
    31    11     6   ar
    32    18    13   ar
@<TRIPOS>MOLECULE
*****
 28 32 0 0 0
SMALL
GASTEIGER

@<TRIPOS>ATOM
      1 C          63.2480   90.1939   11.3549 C.3     1  UNL1        0.0581
      2 C          63.5559   89.9789   12.8071 C.3     1  UNL1        0.0163
      3 C          64.4860   91.0690   13.2501 C.3     1  UNL1        0.0059
      4 C          64.7530   91.9578   12.0716 C.3     1  UNL1        0.0273
      5 C          64.8566   92.6793   10.7606 C.3     1  UNL1        0.0336
      6 C          65.6440   93.9128   10.4315 C.ar    1  UNL1        0.0127
      7 C          65.4704   94.3067    8.9946 C.ar    1  UNL1       -0.0012
      8 C          66.1752   95.5173    8.4584 C.ar    1  UNL1       -0.0001
      9 C          67.0536   96.3341    9.3591 C.ar    1  UNL1        0.0031
     10 C          67.2272   95.9403   10.7960 C.ar    1  UNL1        0.0372
     11 C          66.5224   94.7296   11.3322 C.ar    1  UNL1        0.1413
     12 O          66.8303   94.5146   12.7844 O.3     1  UNL1       -0.4541
     13 C          66.3358   93.4297   13.6947 C.ar    1  UNL1        0.1412
     14 C          66.8888   93.5827   15.0806 C.ar    1  UNL1        0.0372
     15 C          66.5173   92.5978   16.1493 C.ar    1  UNL1        0.0031
     16 C          65.5929   91.4600   15.8321 C.ar    1  UNL1       -0.0001
     17 C          65.0398   91.3070   14.4461 C.ar    1  UNL1       -0.0013
     18 C          65.4113   92.2918   13.3774 C.ar    1  UNL1        0.0121
     19 C          63.9879   91.4170   10.9003 C.3     1  UNL1        0.0204
     20 C          60.5742   87.6212    8.8088 C.2     1  UNL1       -0.0097
     21 C          60.3411   89.1011    8.8838 C.2     1  UNL1       -0.0119
     22 C          61.2324   89.9587    9.7325 C.3     1  UNL1        0.0986
     23 N          62.3567   89.3363   10.5062 N.3     1  UNL1       -0.2700
     24 C          62.5897   87.8564   10.4312 C.3     1  UNL1        0.0771
     25 C          61.6985   86.9989    9.5826 C.3     1  UNL1        0.0445
     26 O          60.2347   85.5390    7.2925 O.co2   1  UNL1       -0.5449
     27 C          59.6829   86.7637    7.9601 C.2     1  UNL1        0.0687
     28 O          58.2399   87.1308    7.7790 O.co2   1  UNL1       -0.5449
@<TRIPOS>UNITY_ATOM_ATTR
26 1
charge -1
@<TRIPOS>BOND
     1    26    27   ar
     2    27    28   ar
     3    27    20    1
     4    20    21    2
     5    21    22    1
     6    22    23    1
     7    23     1    1
     8     1     2    1
     9     2     3    1
    10     3     4    1
    11     4     5    1
    12     5     6    1
    13     6     7   ar
    14     7     8   ar
    15     8     9   ar
    16     9    10   ar
    17    10    11   ar
    18    11    12    1
    19    12    13    1
    20    13    14   ar
    21    14    15   ar
    22    15    16   ar
    23    16    17   ar
    24    17    18   ar
    25     4    19    1
    26    23    24    1
    27    24    25    1
    28    25    20    1
    29    19     1    1
    30    18     4    1
    31    11     6   ar
    32    18    13   ar
@<TRIPOS>MOLECULE
*****
 28 32 0 0 0
SMALL
GASTEIGER

@<TRIPOS>ATOM
      1 C          62.7217   85.0832   12.2697 C.3     1  UNL1        0.0581
      2 C          63.4791   86.0683   13.1098 C.3     1  UNL1        0.0163
      3 C          63.2183   87.4406   12.5633 C.3     1  UNL1        0.0059
      4 C          62.2997   87.3037   11.3855 C.3     1  UNL1        0.0273
      5 C          61.3915   86.9034   10.2608 C.3     1  UNL1        0.0336
      6 C          60.7156   87.7788    9.2475 C.ar    1  UNL1        0.0127
      7 C          59.8891   86.9721    8.2904 C.ar    1  UNL1       -0.0012
      8 C          59.1281   87.6574    7.1945 C.ar    1  UNL1       -0.0001
      9 C          59.1935   89.1495    7.0557 C.ar    1  UNL1        0.0031
     10 C          60.0200   89.9563    8.0127 C.ar    1  UNL1        0.0372
     11 C          60.7811   89.2710    9.1086 C.ar    1  UNL1        0.1413
     12 O          61.5385   90.2561    9.9488 O.3     1  UNL1       -0.4541
     13 C          62.4176   89.9925   11.1352 C.ar    1  UNL1        0.1412
     14 C          62.9881   91.2647   11.6882 C.ar    1  UNL1        0.0372
     15 C          63.8972   91.2231   12.8805 C.ar    1  UNL1        0.0031
     16 C          64.2359   89.9093   13.5199 C.ar    1  UNL1       -0.0001
     17 C          63.6655   88.6369   12.9669 C.ar    1  UNL1       -0.0013
     18 C          62.7563   88.6785   11.7746 C.ar    1  UNL1        0.0121
     19 C          61.9927   85.8467   11.2039 C.3     1  UNL1        0.0204
     20 C          62.6489   80.6208   12.8454 C.2     1  UNL1       -0.0097
     21 C          63.0050   81.1987   11.5078 C.2     1  UNL1       -0.0119
     22 C          63.0293   82.6862   11.3159 C.3     1  UNL1        0.0986
     23 N          62.6974   83.5958   12.4616 N.3     1  UNL1       -0.2700
     24 C          62.3413   83.0177   13.7992 C.3     1  UNL1        0.0771
     25 C          62.3171   81.5304   13.9911 C.3     1  UNL1        0.0445
     26 O          62.6205   78.5557   14.4216 O.co2   1  UNL1       -0.5449
     27 C          62.6247   79.1333   13.0373 C.2     1  UNL1        0.0687
     28 O          62.6046   78.2235   11.8450 O.co2   1  UNL1       -0.5449
@<TRIPOS>UNITY_ATOM_ATTR
26 1
charge -1
@<TRIPOS>BOND
     1    26    27   ar
     2    27    28   ar
     3    27    20    1
     4    20    21    2
     5    21    22    1
     6    22    23    1
     7    23     1    1
     8     1     2    1
     9     2     3    1
    10     3     4    1
    11     4     5    1
    12     5     6    1
    13     6     7   ar
    14     7     8   ar
    15     8     9   ar
    16     9    10   ar
    17    10    11   ar
    18    11    12    1
    19    12    13    1
    20    13    14   ar
    21    14    15   ar
    22    15    16   ar
    23    16    17   ar
    24    17    18   ar
    25     4    19    1
    26    23    24    1
    27    24    25    1
    28    25    20    1
    29    19     1    1
    30    18     4    1
    31    11     6   ar
    32    18    13   ar
@<TRIPOS>MOLECULE
*****
 28 32 0 0 0
SMALL
GASTEIGER

@<TRIPOS>ATOM
      1 C          57.8875   94.7097   -3.0639 C.3     1  UNL1        0.0581
      2 C          58.8785   94.7752   -4.1880 C.3     1  UNL1        0.0163
      3 C          60.2181   94.3690   -3.6491 C.3     1  UNL1        0.0059
      4 C          60.0550   94.0524   -2.1920 C.3     1  UNL1        0.0273
      5 C          59.6336   93.7987   -0.7750 C.3     1  UNL1        0.0336
      6 C          60.4723   93.3469    0.3837 C.ar    1  UNL1        0.0127
      7 C          59.6543   93.2152    1.6340 C.ar    1  UNL1       -0.0012
      8 C          60.3036   92.7738    2.9120 C.ar    1  UNL1       -0.0001
      9 C          61.7710   92.4641    2.9397 C.ar    1  UNL1        0.0031
     10 C          62.5891   92.5958    1.6894 C.ar    1  UNL1        0.0372
     11 C          61.9397   93.0372    0.4113 C.ar    1  UNL1        0.1413
     12 O          62.9307   93.1028   -0.7128 O.3     1  UNL1       -0.4541
     13 C          62.6992   93.4942   -2.1421 C.ar    1  UNL1        0.1412
     14 C          63.9665   93.4247   -2.9416 C.ar    1  UNL1        0.0372
     15 C          63.9539   93.7778   -4.3994 C.ar    1  UNL1        0.0031
     16 C          62.6741   94.2004   -5.0577 C.ar    1  UNL1       -0.0001
     17 C          61.4068   94.2700   -4.2582 C.ar    1  UNL1       -0.0013
     18 C          61.4194   93.9169   -2.8005 C.ar    1  UNL1        0.0121
     19 C          58.6146   94.2629   -1.8303 C.3     1  UNL1        0.0204
     20 C          53.5028   95.6825   -3.3434 C.2     1  UNL1       -0.0097
     21 C          54.0987   95.2771   -2.0279 C.2     1  UNL1       -0.0119
     22 C          55.5602   94.9528   -1.9348 C.3     1  UNL1        0.0986
     23 N          56.4259   95.0340   -3.1571 N.3     1  UNL1       -0.2700
     24 C          55.8299   95.4394   -4.4726 C.3     1  UNL1        0.0771
     25 C          54.3685   95.7636   -4.5658 C.3     1  UNL1        0.0445
     26 O          51.0892   95.4819   -2.4031 O.co2   1  UNL1       -0.5449
     27 C          52.0412   96.0068   -3.4366 C.2     1  UNL1        0.0687
     28 O          51.5316   96.8559   -4.5632 O.co2   1  UNL1       -0.5449
@<TRIPOS>UNITY_ATOM_ATTR
26 1
charge -1
@<TRIPOS>BOND
     1    26    27   ar
     2    27    28   ar
     3    27    20    1
     4    20    21    2
     5    21    22    1
     6    22    23    1
     7    23     1    1
     8     1     2    1
     9     2     3    1
    10     3     4    1
    11     4     5    1
    12     5     6    1
    13     6     7   ar
    14     7     8   ar
    15     8     9   ar
    16     9    10   ar
    17    10    11   ar
    18    11    12    1
    19    12    13    1
    20    13    14   ar
    21    14    15   ar
    22    15    16   ar
    23    16    17   ar
    24    17    18   ar
    25     4    19    1
    26    23    24    1
    27    24    25    1
    28    25    20    1
    29    19     1    1
    30    18     4    1
    31    11     6   ar
    32    18    13   ar
@<TRIPOS>MOLECULE
*****
 28 32 0 0 0
SMALL
GASTEIGER

@<TRIPOS>ATOM
      1 C          62.1810   94.1390   -4.1649 C.3     1  UNL1        0.0581
      2 C          60.8001   94.2654   -4.7366 C.3     1  UNL1        0.0163
      3 C          59.8164   94.0195   -3.6313 C.3     1  UNL1        0.0059
      4 C          60.5895   93.7411   -2.3763 C.3     1  UNL1        0.0273
      5 C          61.5796   93.4972   -1.2762 C.3     1  UNL1        0.0336
      6 C          61.3161   93.1770    0.1653 C.ar    1  UNL1        0.0127
      7 C          62.5944   93.0073    0.9315 C.ar    1  UNL1       -0.0012
      8 C          62.5539   92.6822    2.3953 C.ar    1  UNL1       -0.0001
      9 C          61.2350   92.5268    3.0928 C.ar    1  UNL1        0.0031
     10 C          59.9567   92.6964    2.3266 C.ar    1  UNL1        0.0372
     11 C          59.9973   93.0215    0.8628 C.ar    1  UNL1        0.1413
     12 O          58.6163   93.1480    0.2910 O.3     1  UNL1       -0.4541
     13 C          58.2130   93.4610   -1.1194 C.ar    1  UNL1        0.1412
     14 C          56.7208   93.4935   -1.2684 C.ar    1  UNL1        0.0372
     15 C          56.1067   93.7900   -2.6045 C.ar    1  UNL1        0.0031
     16 C          56.9849   94.0539   -3.7915 C.ar    1  UNL1       -0.0001
     17 C          58.4771   94.0215   -3.6425 C.ar    1  UNL1       -0.0013
     18 C          59.0912   93.7250   -2.3065 C.ar    1  UNL1        0.0121
     19 C          62.0509   93.8149   -2.7061 C.3     1  UNL1        0.0204
     20 C          66.0373   94.6432   -6.4287 C.2     1  UNL1       -0.0097
     21 C          65.4066   95.8226   -5.7495 C.2     1  UNL1       -0.0119
     22 C          64.1212   95.6545   -4.9949 C.3     1  UNL1        0.0986
     23 N          63.4665   94.3070   -4.9195 N.3     1  UNL1       -0.2700
     24 C          64.0972   93.1277   -5.5987 C.3     1  UNL1        0.0771
     25 C          65.3826   93.2957   -6.3532 C.3     1  UNL1        0.0445
     26 O          68.1338   93.6073   -7.5608 O.co2   1  UNL1       -0.5449
     27 C          67.3228   94.8113   -7.1833 C.2     1  UNL1        0.0687
     28 O          67.7973   96.1834   -7.5603 O.co2   1  UNL1       -0.5449
@<TRIPOS>UNITY_ATOM_ATTR
26 1
charge -1
@<TRIPOS>BOND
     1    26    27   ar
     2    27    28   ar
     3    27    20    1
     4    20    21    2
     5    21    22    1
     6    22    23    1
     7    23     1    1
     8     1     2    1
     9     2     3    1
    10     3     4    1
    11     4     5    1
    12     5     6    1
    13     6     7   ar
    14     7     8   ar
    15     8     9   ar
    16     9    10   ar
    17    10    11   ar
    18    11    12    1
    19    12    13    1
    20    13    14   ar
    21    14    15   ar
    22    15    16   ar
    23    16    17   ar
    24    17    18   ar
    25     4    19    1
    26    23    24    1
    27    24    25    1
    28    25    20    1
    29    19     1    1
    30    18     4    1
    31    11     6   ar
    32    18    13   ar
@<TRIPOS>MOLECULE
*****
 28 32 0 0 0
SMALL
GASTEIGER

@<TRIPOS>ATOM
      1 C          60.9264   87.7568    9.3824 C.3     1  UNL1        0.0581
      2 C          60.9982   86.2627    9.4941 C.3     1  UNL1        0.0163
      3 C          61.8398   85.9271   10.6894 C.3     1  UNL1        0.0059
      4 C          62.2883   87.2138   11.3165 C.3     1  UNL1        0.0273
      5 C          62.5975   88.6174   11.7456 C.3     1  UNL1        0.0336
      6 C          63.4216   89.0792   12.9108 C.ar    1  UNL1        0.0127
      7 C          63.4791   90.5764   12.9823 C.ar    1  UNL1       -0.0012
      8 C          64.2550   91.2457   14.0777 C.ar    1  UNL1       -0.0001
      9 C          64.9734   90.4178   15.1017 C.ar    1  UNL1        0.0031
     10 C          64.9160   88.9206   15.0301 C.ar    1  UNL1        0.0372
     11 C          64.1401   88.2513   13.9347 C.ar    1  UNL1        0.1413
     12 O          64.2118   86.7572   14.0463 O.3     1  UNL1       -0.4541
     13 C          63.5829   85.7219   13.1616 C.ar    1  UNL1        0.1412
     14 C          63.9054   84.3333   13.6281 C.ar    1  UNL1        0.0372
     15 C          63.3720   83.1478   12.8797 C.ar    1  UNL1        0.0031
     16 C          62.5159   83.3510   11.6649 C.ar    1  UNL1       -0.0001
     17 C          62.1933   84.7397   11.1984 C.ar    1  UNL1       -0.0013
     18 C          62.7268   85.9252   11.9468 C.ar    1  UNL1        0.0121
     19 C          61.7237   88.3446   10.5088 C.3     1  UNL1        0.0204
     20 C          58.7084   90.0696    6.2231 C.2     1  UNL1       -0.0097
     21 C          59.8468   90.7099    6.9609 C.2     1  UNL1       -0.0119
     22 C          60.5861   89.9389    8.0140 C.3     1  UNL1        0.0986
     23 N          60.1871   88.5277    8.3293 N.3     1  UNL1       -0.2700
     24 C          59.0487   87.8875    7.5915 C.3     1  UNL1        0.0771
     25 C          58.3094   88.6584    6.5384 C.3     1  UNL1        0.0445
     26 O          56.4692   90.8439    5.1572 O.co2   1  UNL1       -0.5449
     27 C          57.9691   90.8406    5.1700 C.2     1  UNL1        0.0687
     28 O          58.7297   91.6082    4.1297 O.co2   1  UNL1       -0.5449
@<TRIPOS>UNITY_ATOM_ATTR
26 1
charge -1
@<TRIPOS>BOND
     1    26    27   ar
     2    27    28   ar
     3    27    20    1
     4    20    21    2
     5    21    22    1
     6    22    23    1
     7    23     1    1
     8     1     2    1
     9     2     3    1
    10     3     4    1
    11     4     5    1
    12     5     6    1
    13     6     7   ar
    14     7     8   ar
    15     8     9   ar
    16     9    10   ar
    17    10    11   ar
    18    11    12    1
    19    12    13    1
    20    13    14   ar
    21    14    15   ar
    22    15    16   ar
    23    16    17   ar
    24    17    18   ar
    25     4    19    1
    26    23    24    1
    27    24    25    1
    28    25    20    1
    29    19     1    1
    30    18     4    1
    31    11     6   ar
    32    18    13   ar
@<TRIPOS>MOLECULE
*****
 28 32 0 0 0
SMALL
GASTEIGER

@<TRIPOS>ATOM
      1 C          58.7436   94.6033   -0.7830 C.3     1  UNL1        0.0581
      2 C          60.0867   94.8594   -1.3995 C.3     1  UNL1        0.0163
      3 C          61.1307   94.2719   -0.4969 C.3     1  UNL1        0.0059
      4 C          60.4327   93.6527    0.6776 C.3     1  UNL1        0.0273
      5 C          59.5096   93.1178    1.7319 C.3     1  UNL1        0.0336
      6 C          59.8553   92.3774    2.9898 C.ar    1  UNL1        0.0127
      7 C          58.6257   92.0197    3.7708 C.ar    1  UNL1       -0.0012
      8 C          58.7506   91.2736    5.0660 C.ar    1  UNL1       -0.0001
      9 C          60.1051   90.8853    5.5803 C.ar    1  UNL1        0.0031
     10 C          61.3347   91.2430    4.7993 C.ar    1  UNL1        0.0372
     11 C          61.2098   91.9891    3.5041 C.ar    1  UNL1        0.1413
     12 O          62.5531   92.2452    2.8874 O.3     1  UNL1       -0.4541
     13 C          62.8736   92.9529    1.6043 C.ar    1  UNL1        0.1412
     14 C          64.3520   92.9911    1.3539 C.ar    1  UNL1        0.0372
     15 C          64.8868   93.6556    0.1201 C.ar    1  UNL1        0.0031
     16 C          63.9433   94.2820   -0.8633 C.ar    1  UNL1       -0.0001
     17 C          62.4647   94.2439   -0.6130 C.ar    1  UNL1       -0.0013
     18 C          61.9299   93.5793    0.6209 C.ar    1  UNL1        0.0121
     19 C          58.9574   93.8575    0.5008 C.3     1  UNL1        0.0204
     20 C          54.7699   95.8529   -2.4856 C.2     1  UNL1       -0.0097
     21 C          55.8771   96.8559   -2.3512 C.2     1  UNL1       -0.0119
     22 C          57.2017   96.4394   -1.7837 C.3     1  UNL1        0.0986
     23 N          57.4190   95.0198   -1.3505 N.3     1  UNL1       -0.2700
     24 C          56.3117   94.0168   -1.4849 C.3     1  UNL1        0.0771
     25 C          54.9873   94.4333   -2.0524 C.3     1  UNL1        0.0445
     26 O          53.1753   96.1123   -4.5202 O.co2   1  UNL1       -0.5449
     27 C          53.4454   96.2694   -3.0532 C.2     1  UNL1        0.0687
     28 O          52.3910   96.8431   -2.1537 O.co2   1  UNL1       -0.5449
@<TRIPOS>UNITY_ATOM_ATTR
26 1
charge -1
@<TRIPOS>BOND
     1    26    27   ar
     2    27    28   ar
     3    27    20    1
     4    20    21    2
     5    21    22    1
     6    22    23    1
     7    23     1    1
     8     1     2    1
     9     2     3    1
    10     3     4    1
    11     4     5    1
    12     5     6    1
    13     6     7   ar
    14     7     8   ar
    15     8     9   ar
    16     9    10   ar
    17    10    11   ar
    18    11    12    1
    19    12    13    1
    20    13    14   ar
    21    14    15   ar
    22    15    16   ar
    23    16    17   ar
    24    17    18   ar
    25     4    19    1
    26    23    24    1
    27    24    25    1
    28    25    20    1
    29    19     1    1
    30    18     4    1
    31    11     6   ar
    32    18    13   ar
@<TRIPOS>MOLECULE
*****
 28 32 0 0 0
SMALL
GASTEIGER

@<TRIPOS>ATOM
      1 C          58.6525   94.6577   -1.1999 C.3     1  UNL1        0.0581
      2 C          58.9573   93.8935    0.0543 C.3     1  UNL1        0.0163
      3 C          60.4481   93.8183    0.2006 C.3     1  UNL1        0.0059
      4 C          61.0648   94.5361   -0.9633 C.3     1  UNL1        0.0273
      5 C          61.4275   95.2981   -2.2034 C.3     1  UNL1        0.0336
      6 C          62.7915   95.6332   -2.7299 C.ar    1  UNL1        0.0127
      7 C          62.7090   96.4141   -4.0079 C.ar    1  UNL1       -0.0012
      8 C          63.9648   96.8508   -4.7023 C.ar    1  UNL1       -0.0001
      9 C          65.3030   96.5067   -4.1187 C.ar    1  UNL1        0.0031
     10 C          65.3855   95.7258   -2.8407 C.ar    1  UNL1        0.0372
     11 C          64.1298   95.2891   -2.1463 C.ar    1  UNL1        0.1413
     12 O          64.4345   94.5248   -0.8921 O.3     1  UNL1       -0.4541
     13 C          63.4764   93.9160    0.0884 C.ar    1  UNL1        0.1412
     14 C          64.2005   93.2356    1.2121 C.ar    1  UNL1        0.0372
     15 C          63.4250   92.5602    2.3041 C.ar    1  UNL1        0.0031
     16 C          61.9254   92.5653    2.2724 C.ar    1  UNL1       -0.0001
     17 C          61.2012   93.2456    1.1486 C.ar    1  UNL1       -0.0013
     18 C          61.9767   93.9210    0.0566 C.ar    1  UNL1        0.0121
     19 C          59.9550   95.0549   -1.8288 C.3     1  UNL1        0.0204
     20 C          54.5505   95.5944   -2.7956 C.2     1  UNL1       -0.0097
     21 C          54.7261   94.5217   -1.7619 C.2     1  UNL1       -0.0119
     22 C          56.0935   94.2095   -1.2300 C.3     1  UNL1        0.0986
     23 N          57.2851   94.9699   -1.7318 N.3     1  UNL1       -0.2700
     24 C          57.1094   96.0426   -2.7655 C.3     1  UNL1        0.0771
     25 C          55.7421   96.3549   -3.2974 C.3     1  UNL1        0.0445
     26 O          51.9655   95.4368   -2.5882 O.co2   1  UNL1       -0.5449
     27 C          53.1831   95.9067   -3.3275 C.2     1  UNL1        0.0687
     28 O          53.0334   96.6887   -4.5987 O.co2   1  UNL1       -0.5449
@<TRIPOS>UNITY_ATOM_ATTR
26 1
charge -1
@<TRIPOS>BOND
     1    26    27   ar
     2    27    28   ar
     3    27    20    1
     4    20    21    2
     5    21    22    1
     6    22    23    1
     7    23     1    1
     8     1     2    1
     9     2     3    1
    10     3     4    1
    11     4     5    1
    12     5     6    1
    13     6     7   ar
    14     7     8   ar
    15     8     9   ar
    16     9    10   ar
    17    10    11   ar
    18    11    12    1
    19    12    13    1
    20    13    14   ar
    21    14    15   ar
    22    15    16   ar
    23    16    17   ar
    24    17    18   ar
    25     4    19    1
    26    23    24    1
    27    24    25    1
    28    25    20    1
    29    19     1    1
    30    18     4    1
    31    11     6   ar
    32    18    13   ar
