@<TRIPOS>MOLECULE
*****
 24 27 0 0 0
SMALL
GASTEIGER

@<TRIPOS>ATOM
      1 C          61.5125   87.1810   10.7900 C.3     1  UNL1        0.1140
      2 C          62.2340   88.4559   11.1129 C.ar    1  UNL1        0.0273
      3 C          63.2235   88.8053   12.1847 C.ar    1  UNL1        0.1379
      4 F          63.6492   87.7670   13.1799 F       1  UNL1       -0.2044
      5 C          63.7874   90.1933   12.2611 C.ar    1  UNL1        0.0294
      6 C          63.3616   91.2316   11.2659 C.ar    1  UNL1        0.0023
      7 C          62.3721   90.8821   10.1941 C.ar    1  UNL1        0.0014
      8 C          61.8082   89.4943   10.1176 C.ar    1  UNL1        0.0173
      9 C          60.8237   88.8611    9.1796 C.ar    1  UNL1        0.0804
     10 C          59.9521   89.1117    7.9847 C.ar    1  UNL1        0.1178
     11 N          59.2307   87.8368    7.6618 N.ar    1  UNL1       -0.2223
     12 C          59.6564   86.7984    8.6571 C.ar    1  UNL1        0.1788
     13 N          60.6409   87.4315    9.5951 N.ar    1  UNL1       -0.3068
     14 C          61.6402   85.8834   11.5316 C.3     1  UNL1        0.0565
     15 C          62.5450   84.8070   11.0096 C.3     1  UNL1        0.1127
     16 O          63.1320   84.9225    9.6339 O.3     1  UNL1       -0.3844
     17 H          63.6889   84.1489    9.4541 H       1  UNL1        0.2103
     18 O          63.8167   80.0396   14.4234 O.2     1  UNL1       -0.2961
     19 C          63.4988   81.2315   13.5699 C.2     1  UNL1        0.1506
     20 C          63.6239   82.6146   14.1367 C.3     1  UNL1        0.0646
     21 C          63.3060   83.8064   13.2832 C.3     1  UNL1        0.0102
     22 C          62.8630   83.6152   11.8630 C.3     1  UNL1        0.0279
     23 C          62.7378   82.2320   11.2962 C.3     1  UNL1        0.0102
     24 C          63.0557   81.0401   12.1496 C.3     1  UNL1        0.0646
@<TRIPOS>BOND
     1    18    19    2
     2    19    20    1
     3    20    21    1
     4    21    22    1
     5    22    15    1
     6    15    16    1
     7    15    14    1
     8    14     1    1
     9     1     2    1
    10     2     3   ar
    11     3     4    1
    12     3     5   ar
    13     5     6   ar
    14     6     7   ar
    15     7     8   ar
    16     8     9    1
    17     9    10   ar
    18    10    11   ar
    19    11    12   ar
    20    12    13   ar
    21    22    23    1
    22    23    24    1
    23    24    19    1
    24    13     1    1
    25     8     2   ar
    26    13     9   ar
    27    16    17    1
@<TRIPOS>MOLECULE
*****
 24 27 0 0 0
SMALL
GASTEIGER

@<TRIPOS>ATOM
      1 C          61.8440   88.7576   11.0054 C.3     1  UNL1        0.1140
      2 C          62.3468   87.4375   11.5103 C.ar    1  UNL1        0.0273
      3 C          63.2198   87.0749   12.6749 C.ar    1  UNL1        0.1379
      4 F          63.7511   88.1490   13.5770 F       1  UNL1       -0.2044
      5 C          63.5614   85.6380   12.9373 C.ar    1  UNL1        0.0294
      6 C          63.0301   84.5640   12.0351 C.ar    1  UNL1        0.0023
      7 C          62.1571   84.9266   10.8705 C.ar    1  UNL1        0.0014
      8 C          61.8154   86.3634   10.6080 C.ar    1  UNL1        0.0173
      9 C          60.9843   87.0196    9.5456 C.ar    1  UNL1        0.0804
     10 C          60.1423   86.7612    8.3315 C.ar    1  UNL1        0.1178
     11 N          59.6395   88.0812    7.8267 N.ar    1  UNL1       -0.2223
     12 C          60.1708   89.1554    8.7288 C.ar    1  UNL1        0.1788
     13 N          61.0020   88.4992    9.7912 N.ar    1  UNL1       -0.3068
     14 C          62.1326   90.1002   11.6088 C.3     1  UNL1        0.0565
     15 C          63.0943   91.0340   10.9356 C.3     1  UNL1        0.1127
     16 O          62.8493   91.4719    9.5220 O.3     1  UNL1       -0.3844
     17 H          63.5598   92.0695    9.2409 H       1  UNL1        0.2103
     18 O          67.9209   93.0174   13.8970 O.2     1  UNL1       -0.2961
     19 C          66.7142   92.5216   13.1567 C.2     1  UNL1        0.1506
     20 C          66.5426   92.8429   11.7016 C.3     1  UNL1        0.0646
     21 C          65.3360   92.3470   10.9613 C.3     1  UNL1        0.0102
     22 C          64.3009   91.5298   11.6760 C.3     1  UNL1        0.0279
     23 C          64.4725   91.2085   13.1311 C.3     1  UNL1        0.0102
     24 C          65.6792   91.7043   13.8715 C.3     1  UNL1        0.0646
@<TRIPOS>BOND
     1    18    19    2
     2    19    20    1
     3    20    21    1
     4    21    22    1
     5    22    15    1
     6    15    16    1
     7    15    14    1
     8    14     1    1
     9     1     2    1
    10     2     3   ar
    11     3     4    1
    12     3     5   ar
    13     5     6   ar
    14     6     7   ar
    15     7     8   ar
    16     8     9    1
    17     9    10   ar
    18    10    11   ar
    19    11    12   ar
    20    12    13   ar
    21    22    23    1
    22    23    24    1
    23    24    19    1
    24    13     1    1
    25     8     2   ar
    26    13     9   ar
    27    16    17    1
@<TRIPOS>MOLECULE
*****
 24 27 0 0 0
SMALL
GASTEIGER

@<TRIPOS>ATOM
      1 C          63.3091   87.2922   12.6899 C.3     1  UNL1        0.1140
      2 C          63.4447   85.8371   13.0283 C.ar    1  UNL1        0.0273
      3 C          64.1395   85.1287   14.1532 C.ar    1  UNL1        0.1379
      4 F          64.8709   85.9177   15.1984 F       1  UNL1       -0.2044
      5 C          64.1031   83.6312   14.2328 C.ar    1  UNL1        0.0294
      6 C          63.3717   82.8423   13.1875 C.ar    1  UNL1        0.0023
      7 C          62.6768   83.5506   12.0627 C.ar    1  UNL1        0.0014
      8 C          62.7133   85.0480   11.9830 C.ar    1  UNL1        0.0173
      9 C          62.1257   86.0154   10.9987 C.ar    1  UNL1        0.0804
     10 C          61.3106   86.1256    9.7443 C.ar    1  UNL1        0.1178
     11 N          61.1751   87.5806    9.4059 N.ar    1  UNL1       -0.2223
     12 C          61.9064   88.3697   10.4512 C.ar    1  UNL1        0.1788
     13 N          62.4940   87.4023   11.4355 N.ar    1  UNL1       -0.3068
     14 C          63.8872   88.4362   13.4691 C.3     1  UNL1        0.0565
     15 C          63.3356   89.8196   13.2910 C.3     1  UNL1        0.1127
     16 O          61.8987   90.1018   13.6162 O.3     1  UNL1       -0.3844
     17 H          61.7064   91.0372   13.4465 H       1  UNL1        0.2103
     18 O          66.8766   94.2250   11.2776 O.2     1  UNL1       -0.2961
     19 C          65.9913   93.1236   11.7809 C.2     1  UNL1        0.1506
     20 C          64.9618   92.5158   10.8752 C.3     1  UNL1        0.0646
     21 C          64.0765   91.4144   11.3785 C.3     1  UNL1        0.0102
     22 C          64.2208   90.9209   12.7876 C.3     1  UNL1        0.0279
     23 C          65.2505   91.5288   13.6934 C.3     1  UNL1        0.0102
     24 C          66.1357   92.6302   13.1901 C.3     1  UNL1        0.0646
@<TRIPOS>BOND
     1    18    19    2
     2    19    20    1
     3    20    21    1
     4    21    22    1
     5    22    15    1
     6    15    16    1
     7    15    14    1
     8    14     1    1
     9     1     2    1
    10     2     3   ar
    11     3     4    1
    12     3     5   ar
    13     5     6   ar
    14     6     7   ar
    15     7     8   ar
    16     8     9    1
    17     9    10   ar
    18    10    11   ar
    19    11    12   ar
    20    12    13   ar
    21    22    23    1
    22    23    24    1
    23    24    19    1
    24    13     1    1
    25     8     2   ar
    26    13     9   ar
    27    16    17    1
@<TRIPOS>MOLECULE
*****
 24 27 0 0 0
SMALL
GASTEIGER

@<TRIPOS>ATOM
      1 C          61.6116   88.2732   11.0271 C.3     1  UNL1        0.1140
      2 C          60.8426   87.9965    9.7692 C.ar    1  UNL1        0.0273
      3 C          60.0171   88.8809    8.8824 C.ar    1  UNL1        0.1379
      4 F          59.8568   90.3350    9.2133 F       1  UNL1       -0.2044
      5 C          59.3520   88.3110    7.6646 C.ar    1  UNL1        0.0294
      6 C          59.5124   86.8568    7.3338 C.ar    1  UNL1        0.0023
      7 C          60.3378   85.9724    8.2206 C.ar    1  UNL1        0.0014
      8 C          61.0030   86.5422    9.4383 C.ar    1  UNL1        0.0173
      9 C          61.8710   85.9201   10.4917 C.ar    1  UNL1        0.0804
     10 C          62.5066   84.6369   10.9381 C.ar    1  UNL1        0.1178
     11 N          63.2755   84.9136   12.1960 N.ar    1  UNL1       -0.2223
     12 C          63.1152   86.3678   12.5269 C.ar    1  UNL1        0.1788
     13 N          62.2472   86.9899   11.4736 N.ar    1  UNL1       -0.3068
     14 C          61.7251   89.6001   11.7173 C.3     1  UNL1        0.0565
     15 C          62.7927   90.5703   11.3064 C.3     1  UNL1        0.1127
     16 O          62.7470   91.2049    9.9480 O.3     1  UNL1       -0.3844
     17 H          63.5048   91.8014    9.8441 H       1  UNL1        0.2103
     18 O          67.2459   91.9132   15.0966 O.2     1  UNL1       -0.2961
     19 C          66.1326   91.5775   14.1491 C.2     1  UNL1        0.1506
     20 C          65.9802   92.3444   12.8690 C.3     1  UNL1        0.0646
     21 C          64.8669   92.0087   11.9215 C.3     1  UNL1        0.0102
     22 C          63.9060   90.9060   12.2540 C.3     1  UNL1        0.0279
     23 C          64.0583   90.1390   13.5340 C.3     1  UNL1        0.0102
     24 C          65.1716   90.4747   14.4816 C.3     1  UNL1        0.0646
@<TRIPOS>BOND
     1    18    19    2
     2    19    20    1
     3    20    21    1
     4    21    22    1
     5    22    15    1
     6    15    16    1
     7    15    14    1
     8    14     1    1
     9     1     2    1
    10     2     3   ar
    11     3     4    1
    12     3     5   ar
    13     5     6   ar
    14     6     7   ar
    15     7     8   ar
    16     8     9    1
    17     9    10   ar
    18    10    11   ar
    19    11    12   ar
    20    12    13   ar
    21    22    23    1
    22    23    24    1
    23    24    19    1
    24    13     1    1
    25     8     2   ar
    26    13     9   ar
    27    16    17    1
@<TRIPOS>MOLECULE
*****
 24 27 0 0 0
SMALL
GASTEIGER

@<TRIPOS>ATOM
      1 C          63.2918   88.6830   12.4324 C.3     1  UNL1        0.1140
      2 C          62.4909   88.0823   11.3153 C.ar    1  UNL1        0.0273
      3 C          61.8084   88.6941   10.1279 C.ar    1  UNL1        0.1379
      4 F          61.8680   90.1769    9.9102 F       1  UNL1       -0.2044
      5 C          61.0661   87.8228    9.1583 C.ar    1  UNL1        0.0294
      6 C          61.0066   86.3400    9.3761 C.ar    1  UNL1        0.0023
      7 C          61.6892   85.7282   10.5635 C.ar    1  UNL1        0.0014
      8 C          62.4314   86.5994   11.5331 C.ar    1  UNL1        0.0173
      9 C          63.1953   86.2836   12.7848 C.ar    1  UNL1        0.0804
     10 C          63.6306   85.1719   13.6929 C.ar    1  UNL1        0.1178
     11 N          64.4313   85.7727   14.8100 N.ar    1  UNL1       -0.2223
     12 C          64.4910   87.2556   14.5923 C.ar    1  UNL1        0.1788
     13 N          63.7270   87.5714   13.3406 N.ar    1  UNL1       -0.3068
     14 C          63.6027   90.1397   12.6102 C.3     1  UNL1        0.0565
     15 C          63.8807   90.6856   13.9793 C.3     1  UNL1        0.1127
     16 O          62.8581   90.5394   15.0670 O.3     1  UNL1       -0.3844
     17 H          63.1934   90.9437   15.8825 H       1  UNL1        0.2103
     18 O          69.0831   93.4544   15.1055 O.2     1  UNL1       -0.2961
     19 C          67.7825   92.7622   14.8240 C.2     1  UNL1        0.1506
     20 C          67.5087   92.2072   13.4576 C.3     1  UNL1        0.0646
     21 C          66.2081   91.5150   13.1761 C.3     1  UNL1        0.0102
     22 C          65.1813   91.3778   14.2609 C.3     1  UNL1        0.0279
     23 C          65.4551   91.9328   15.6273 C.3     1  UNL1        0.0102
     24 C          66.7557   92.6250   15.9089 C.3     1  UNL1        0.0646
@<TRIPOS>BOND
     1    18    19    2
     2    19    20    1
     3    20    21    1
     4    21    22    1
     5    22    15    1
     6    15    16    1
     7    15    14    1
     8    14     1    1
     9     1     2    1
    10     2     3   ar
    11     3     4    1
    12     3     5   ar
    13     5     6   ar
    14     6     7   ar
    15     7     8   ar
    16     8     9    1
    17     9    10   ar
    18    10    11   ar
    19    11    12   ar
    20    12    13   ar
    21    22    23    1
    22    23    24    1
    23    24    19    1
    24    13     1    1
    25     8     2   ar
    26    13     9   ar
    27    16    17    1
@<TRIPOS>MOLECULE
*****
 24 27 0 0 0
SMALL
GASTEIGER

@<TRIPOS>ATOM
      1 C          63.1831   86.7043   12.5865 C.3     1  UNL1        0.1140
      2 C          63.4574   88.1606   12.8188 C.ar    1  UNL1        0.0273
      3 C          64.2387   88.8782   13.8793 C.ar    1  UNL1        0.1379
      4 F          64.9190   88.0994   14.9658 F       1  UNL1       -0.2044
      5 C          64.3397   90.3746   13.8531 C.ar    1  UNL1        0.0294
      6 C          63.6594   91.1533   12.7665 C.ar    1  UNL1        0.0023
      7 C          62.8781   90.4358   11.7060 C.ar    1  UNL1        0.0014
      8 C          62.7770   88.9394   11.7321 C.ar    1  UNL1        0.0173
      9 C          62.0823   87.9644   10.8284 C.ar    1  UNL1        0.0804
     10 C          61.2325   87.8432    9.5983 C.ar    1  UNL1        0.1178
     11 N          60.9583   86.3869    9.3661 N.ar    1  UNL1       -0.2223
     12 C          61.6386   85.6080   10.4527 C.ar    1  UNL1        0.1788
     13 N          62.3333   86.5830   11.3564 N.ar    1  UNL1       -0.3068
     14 C          63.6727   85.5686   13.4354 C.3     1  UNL1        0.0565
     15 C          62.7086   84.5301   13.9274 C.3     1  UNL1        0.1127
     16 O          61.7509   84.8600   15.0338 O.3     1  UNL1       -0.3844
     17 H          61.2029   84.0839   15.2292 H       1  UNL1        0.2103
     18 O          62.6829   79.0565   11.4700 O.2     1  UNL1       -0.2961
     19 C          62.6893   80.4249   12.0843 C.2     1  UNL1        0.1506
     20 C          62.1597   80.6260   13.4732 C.3     1  UNL1        0.0646
     21 C          62.1661   81.9944   14.0876 C.3     1  UNL1        0.0102
     22 C          62.7022   83.1617   13.3130 C.3     1  UNL1        0.0279
     23 C          63.2319   82.9607   11.9241 C.3     1  UNL1        0.0102
     24 C          63.2254   81.5923   11.3097 C.3     1  UNL1        0.0646
@<TRIPOS>BOND
     1    18    19    2
     2    19    20    1
     3    20    21    1
     4    21    22    1
     5    22    15    1
     6    15    16    1
     7    15    14    1
     8    14     1    1
     9     1     2    1
    10     2     3   ar
    11     3     4    1
    12     3     5   ar
    13     5     6   ar
    14     6     7   ar
    15     7     8   ar
    16     8     9    1
    17     9    10   ar
    18    10    11   ar
    19    11    12   ar
    20    12    13   ar
    21    22    23    1
    22    23    24    1
    23    24    19    1
    24    13     1    1
    25     8     2   ar
    26    13     9   ar
    27    16    17    1
@<TRIPOS>MOLECULE
*****
 24 27 0 0 0
SMALL
GASTEIGER

@<TRIPOS>ATOM
      1 C          63.7478   88.5796   13.2586 C.3     1  UNL1        0.1140
      2 C          63.4544   87.1310   13.0023 C.ar    1  UNL1        0.0273
      3 C          63.7988   85.8868   13.7662 C.ar    1  UNL1        0.1379
      4 F          64.5811   85.9825   15.0423 F       1  UNL1       -0.2044
      5 C          63.3606   84.5468   13.2537 C.ar    1  UNL1        0.0294
      6 C          62.5782   84.4511   11.9776 C.ar    1  UNL1        0.0023
      7 C          62.2339   85.6953   11.2138 C.ar    1  UNL1        0.0014
      8 C          62.6720   87.0353   11.7261 C.ar    1  UNL1        0.0173
      9 C          62.4817   88.4246   11.1937 C.ar    1  UNL1        0.0804
     10 C          61.8806   89.2241   10.0759 C.ar    1  UNL1        0.1178
     11 N          62.1739   90.6726   10.3323 N.ar    1  UNL1       -0.2223
     12 C          62.9563   90.7684   11.6084 C.ar    1  UNL1        0.1788
     13 N          63.1466   89.3790   12.1409 N.ar    1  UNL1       -0.3068
     14 C          64.5086   89.1317   14.4275 C.3     1  UNL1        0.0565
     15 C          64.4419   90.5969   14.7413 C.3     1  UNL1        0.1127
     16 O          63.1112   91.2656   14.9214 O.3     1  UNL1       -0.3844
     17 H          63.2458   92.2059   15.1177 H       1  UNL1        0.2103
     18 O          69.4973   93.7838   15.2764 O.2     1  UNL1       -0.2961
     19 C          68.2335   92.9871   15.1426 C.2     1  UNL1        0.1506
     20 C          68.0169   92.1210   13.9373 C.3     1  UNL1        0.0646
     21 C          66.7530   91.3243   13.8035 C.3     1  UNL1        0.0102
     22 C          65.7057   91.3937   14.8751 C.3     1  UNL1        0.0279
     23 C          65.9223   92.2598   16.0805 C.3     1  UNL1        0.0102
     24 C          67.1862   93.0565   16.2143 C.3     1  UNL1        0.0646
@<TRIPOS>BOND
     1    18    19    2
     2    19    20    1
     3    20    21    1
     4    21    22    1
     5    22    15    1
     6    15    16    1
     7    15    14    1
     8    14     1    1
     9     1     2    1
    10     2     3   ar
    11     3     4    1
    12     3     5   ar
    13     5     6   ar
    14     6     7   ar
    15     7     8   ar
    16     8     9    1
    17     9    10   ar
    18    10    11   ar
    19    11    12   ar
    20    12    13   ar
    21    22    23    1
    22    23    24    1
    23    24    19    1
    24    13     1    1
    25     8     2   ar
    26    13     9   ar
    27    16    17    1
@<TRIPOS>MOLECULE
*****
 24 27 0 0 0
SMALL
GASTEIGER

@<TRIPOS>ATOM
      1 C          63.6950   87.0684   13.1511 C.3     1  UNL1        0.1140
      2 C          62.8661   87.0429   11.9011 C.ar    1  UNL1        0.0273
      3 C          62.3515   85.9118   11.0610 C.ar    1  UNL1        0.1379
      4 F          62.6587   84.4941   11.4425 F       1  UNL1       -0.2044
      5 C          61.5295   86.1985    9.8394 C.ar    1  UNL1        0.0294
      6 C          61.2223   87.6163    9.4580 C.ar    1  UNL1        0.0023
      7 C          61.7370   88.7474   10.2981 C.ar    1  UNL1        0.0014
      8 C          62.5589   88.4607   11.5197 C.ar    1  UNL1        0.0173
      9 C          63.1979   89.3624   12.5339 C.ar    1  UNL1        0.0804
     10 C          63.4029   90.7960   12.9249 C.ar    1  UNL1        0.1178
     11 N          64.2317   90.8215   14.1748 N.ar    1  UNL1       -0.2223
     12 C          64.5390   89.4037   14.5563 C.ar    1  UNL1        0.1788
     13 N          63.9000   88.5020   13.5421 N.ar    1  UNL1       -0.3068
     14 C          64.2257   85.8707   13.8818 C.3     1  UNL1        0.0565
     15 C          63.2947   85.0036   14.6763 C.3     1  UNL1        0.1127
     16 O          62.5872   85.5638   15.8746 O.3     1  UNL1       -0.3844
     17 H          62.0283   84.8769   16.2705 H       1  UNL1        0.2103
     18 O          62.4001   79.2946   13.0617 O.2     1  UNL1       -0.2961
     19 C          62.6238   80.7218   13.4653 C.2     1  UNL1        0.1506
     20 C          63.9053   81.4118   13.1028 C.3     1  UNL1        0.0646
     21 C          64.1290   82.8391   13.5064 C.3     1  UNL1        0.0102
     22 C          63.0710   83.5763   14.2727 C.3     1  UNL1        0.0279
     23 C          61.7894   82.8864   14.6353 C.3     1  UNL1        0.0102
     24 C          61.5657   81.4591   14.2316 C.3     1  UNL1        0.0646
@<TRIPOS>BOND
     1    18    19    2
     2    19    20    1
     3    20    21    1
     4    21    22    1
     5    22    15    1
     6    15    16    1
     7    15    14    1
     8    14     1    1
     9     1     2    1
    10     2     3   ar
    11     3     4    1
    12     3     5   ar
    13     5     6   ar
    14     6     7   ar
    15     7     8   ar
    16     8     9    1
    17     9    10   ar
    18    10    11   ar
    19    11    12   ar
    20    12    13   ar
    21    22    23    1
    22    23    24    1
    23    24    19    1
    24    13     1    1
    25     8     2   ar
    26    13     9   ar
    27    16    17    1
@<TRIPOS>MOLECULE
*****
 24 27 0 0 0
SMALL
GASTEIGER

@<TRIPOS>ATOM
      1 C          62.1757   87.0190   10.4750 C.3     1  UNL1        0.1140
      2 C          61.1771   87.3172    9.3961 C.ar    1  UNL1        0.0273
      3 C          60.5158   86.4439    8.3714 C.ar    1  UNL1        0.1379
      4 F          60.8331   84.9789    8.3172 F       1  UNL1       -0.2044
      5 C          59.5370   87.0358    7.4009 C.ar    1  UNL1        0.0294
      6 C          59.2198   88.5008    7.4551 C.ar    1  UNL1        0.0023
      7 C          59.8811   89.3740    8.4798 C.ar    1  UNL1        0.0014
      8 C          60.8598   88.7823    9.4504 C.ar    1  UNL1        0.0173
      9 C          61.6622   89.3895   10.5627 C.ar    1  UNL1        0.0804
     10 C          61.9620   90.6703   11.2836 C.ar    1  UNL1        0.1178
     11 N          62.9606   90.3721   12.3624 N.ar    1  UNL1       -0.2223
     12 C          63.2780   88.9071   12.3083 C.ar    1  UNL1        0.1788
     13 N          62.4755   88.2998   11.1960 N.ar    1  UNL1       -0.3068
     14 C          62.7701   85.6759   10.7795 C.3     1  UNL1        0.0565
     15 C          62.8948   85.2158   12.2017 C.3     1  UNL1        0.1127
     16 O          63.1869   86.2081   13.2881 O.3     1  UNL1       -0.3844
     17 H          63.2348   85.7488   14.1411 H       1  UNL1        0.2103
     18 O          62.2249   79.4067   13.5454 O.2     1  UNL1       -0.2961
     19 C          62.3924   80.8590   13.2095 C.2     1  UNL1        0.1506
     20 C          62.7924   81.2667   11.8225 C.3     1  UNL1        0.0646
     21 C          62.9599   82.7190   11.4866 C.3     1  UNL1        0.0102
     22 C          62.7273   83.7636   12.5376 C.3     1  UNL1        0.0279
     23 C          62.3273   83.3559   13.9247 C.3     1  UNL1        0.0102
     24 C          62.1599   81.9036   14.2606 C.3     1  UNL1        0.0646
@<TRIPOS>BOND
     1    18    19    2
     2    19    20    1
     3    20    21    1
     4    21    22    1
     5    22    15    1
     6    15    16    1
     7    15    14    1
     8    14     1    1
     9     1     2    1
    10     2     3   ar
    11     3     4    1
    12     3     5   ar
    13     5     6   ar
    14     6     7   ar
    15     7     8   ar
    16     8     9    1
    17     9    10   ar
    18    10    11   ar
    19    11    12   ar
    20    12    13   ar
    21    22    23    1
    22    23    24    1
    23    24    19    1
    24    13     1    1
    25     8     2   ar
    26    13     9   ar
    27    16    17    1
