@<TRIPOS>MOLECULE
*****
 34 38 0 0 0
SMALL
GASTEIGER

@<TRIPOS>ATOM
      1 N          63.7157   85.6187   15.5875 N.3     1  UNL1       -0.2726
      2 C          63.0842   86.0173   16.8884 C.3     1  UNL1        0.0721
      3 C          62.8221   87.3964   17.4169 C.3     1  UNL1        0.0177
      4 C          63.1266   88.7175   16.7751 C.3     1  UNL1        0.0055
      5 C          63.3416   90.1297   16.3175 C.3     1  UNL1        0.0045
      6 C          63.7686   88.9858   15.4462 C.3     1  UNL1        0.0203
      7 C          64.2645   87.9992   14.4310 C.3     1  UNL1        0.0214
      8 C          64.2410   86.5007   14.4938 C.3     1  UNL1        0.0724
      9 C          64.2300   90.0389   14.4827 C.ar    1  UNL1       -0.0228
     10 C          65.3753   90.9371   14.8454 C.ar    1  UNL1       -0.0043
     11 C          65.8368   91.9901   13.8820 C.ar    1  UNL1        0.0035
     12 C          65.1530   92.1449   12.5559 C.ar    1  UNL1        0.0714
     13 C          64.0076   91.2466   12.1932 C.ar    1  UNL1        0.0035
     14 C          63.5462   90.1936   13.1567 C.ar    1  UNL1       -0.0043
     15 C          65.6144   93.1978   11.5925 C.3     1  UNL1        0.4186
     16 F          66.0758   94.2508   10.6289 F       1  UNL1       -0.1659
     17 F          64.9199   92.4788   10.4741 F       1  UNL1       -0.1659
     18 F          66.3089   93.9169   12.7107 F       1  UNL1       -0.1659
     19 C          63.8381   84.1429   15.3486 C.3     1  UNL1        0.0730
     20 C          64.6883   83.6333   14.2228 C.3     1  UNL1        0.0294
     21 C          64.0505   82.9386   13.0564 C.3     1  UNL1        0.0666
     22 S          63.9650   83.6292   11.7275 S.3     1  UNL1       -0.0756
     23 C          63.0618   84.8244    8.8284 C.3     1  UNL1        0.1340
     24 N          62.5037   85.2279   10.1610 N.ar    1  UNL1       -0.2884
     25 C          62.9189   84.6785   11.4935 C.ar    1  UNL1        0.1932
     26 N          62.1044   85.3627   12.5511 N.ar    1  UNL1       -0.1221
     27 N          61.1859   86.3348   11.8722 N.ar    1  UNL1       -0.1282
     28 C          61.4327   86.2516   10.3950 C.ar    1  UNL1        0.1684
     29 C          60.7314   87.0516    9.3374 C.ar    1  UNL1        0.0585
     30 C          59.9371   86.3545    8.2730 C.ar    1  UNL1        0.0272
     31 C          59.2359   87.1545    7.2155 C.ar    1  UNL1        0.1223
     32 N          59.3291   88.6516    7.2224 N.ar    1  UNL1       -0.1464
     33 N          60.1235   89.3487    8.2869 N.ar    1  UNL1       -0.1463
     34 C          60.8246   88.5487    9.3443 C.ar    1  UNL1        0.1252
@<TRIPOS>BOND
     1    23    24    1
     2    24    25   ar
     3    25    22    1
     4    22    21    1
     5    21    20    1
     6    20    19    1
     7    19     1    1
     8     1     2    1
     9     2     3    1
    10     3     4    1
    11     4     5    1
    12     5     6    1
    13     6     9    1
    14     9    10   ar
    15    10    11   ar
    16    11    12   ar
    17    12    15    1
    18    15    16    1
    19    15    17    1
    20    15    18    1
    21    12    13   ar
    22    13    14   ar
    23     6     7    1
    24     7     8    1
    25    25    26   ar
    26    26    27   ar
    27    27    28   ar
    28    28    29    1
    29    29    30   ar
    30    30    31   ar
    31    31    32   ar
    32    32    33   ar
    33    33    34   ar
    34    28    24   ar
    35    34    29   ar
    36     8     1    1
    37     6     4    1
    38    14     9   ar
@<TRIPOS>MOLECULE
*****
 34 38 0 0 0
SMALL
GASTEIGER

@<TRIPOS>ATOM
      1 N          63.5390   84.1414   14.1829 N.3     1  UNL1       -0.2726
      2 C          64.4281   83.1288   13.5240 C.3     1  UNL1        0.0721
      3 C          64.6013   82.8478   12.0607 C.3     1  UNL1        0.0177
      4 C          63.9282   83.5098   10.8951 C.3     1  UNL1        0.0055
      5 C          63.3756   84.0321    9.6021 C.3     1  UNL1        0.0045
      6 C          62.9156   84.6164   10.9048 C.3     1  UNL1        0.0203
      7 C          62.3261   85.3343   12.0826 C.3     1  UNL1        0.0214
      8 C          62.6035   85.1229   13.5415 C.3     1  UNL1        0.0724
      9 C          62.0489   85.5106   10.0686 C.ar    1  UNL1       -0.0228
     10 C          61.2340   86.5882   10.7204 C.ar    1  UNL1       -0.0043
     11 C          60.3672   87.4824    9.8842 C.ar    1  UNL1        0.0035
     12 C          60.3154   87.2990    8.3964 C.ar    1  UNL1        0.0714
     13 C          61.1303   86.2213    7.7446 C.ar    1  UNL1        0.0035
     14 C          61.9970   85.3272    8.5808 C.ar    1  UNL1       -0.0043
     15 C          59.4487   88.1931    7.5602 C.3     1  UNL1        0.4186
     16 F          58.5819   89.0873    6.7239 F       1  UNL1       -0.1659
     17 F          58.6739   86.9992    7.0866 F       1  UNL1       -0.1659
     18 F          60.2234   89.3871    8.0336 F       1  UNL1       -0.1659
     19 C          63.5924   84.1771   15.6816 C.3     1  UNL1        0.0730
     20 C          62.8621   85.2505   16.4327 C.3     1  UNL1        0.0294
     21 C          63.5433   86.5531   16.7314 C.3     1  UNL1        0.0666
     22 S          62.7345   87.8095   16.8632 S.3     1  UNL1       -0.0756
     23 C          64.2900   88.1887   14.0197 C.3     1  UNL1        0.1340
     24 N          63.9754   89.2757   15.0044 N.ar    1  UNL1       -0.2884
     25 C          63.2604   89.1014   16.3114 C.ar    1  UNL1        0.1932
     26 N          63.1637   90.4457   16.9697 N.ar    1  UNL1       -0.1221
     27 N          63.8189   91.4508   16.0696 N.ar    1  UNL1       -0.1282
     28 C          64.3206   90.7277   14.8549 C.ar    1  UNL1        0.1684
     29 C          65.0409   91.3479   13.6944 C.ar    1  UNL1        0.0585
     30 C          64.3201   91.5749   12.3987 C.ar    1  UNL1        0.0272
     31 C          65.0405   92.1950   11.2384 C.ar    1  UNL1        0.1223
     32 N          66.4817   92.5881   11.3737 N.ar    1  UNL1       -0.1464
     33 N          67.2026   92.3612   12.6694 N.ar    1  UNL1       -0.1463
     34 C          66.4822   91.7410   13.8297 C.ar    1  UNL1        0.1252
@<TRIPOS>BOND
     1    23    24    1
     2    24    25   ar
     3    25    22    1
     4    22    21    1
     5    21    20    1
     6    20    19    1
     7    19     1    1
     8     1     2    1
     9     2     3    1
    10     3     4    1
    11     4     5    1
    12     5     6    1
    13     6     9    1
    14     9    10   ar
    15    10    11   ar
    16    11    12   ar
    17    12    15    1
    18    15    16    1
    19    15    17    1
    20    15    18    1
    21    12    13   ar
    22    13    14   ar
    23     6     7    1
    24     7     8    1
    25    25    26   ar
    26    26    27   ar
    27    27    28   ar
    28    28    29    1
    29    29    30   ar
    30    30    31   ar
    31    31    32   ar
    32    32    33   ar
    33    33    34   ar
    34    28    24   ar
    35    34    29   ar
    36     8     1    1
    37     6     4    1
    38    14     9   ar
@<TRIPOS>MOLECULE
*****
 34 38 0 0 0
SMALL
GASTEIGER

@<TRIPOS>ATOM
      1 N          63.4084   82.6952   11.8857 N.3     1  UNL1       -0.2726
      2 C          64.0219   82.4785   10.5341 C.3     1  UNL1        0.0721
      3 C          63.9787   83.3756    9.3328 C.3     1  UNL1        0.0177
      4 C          63.3114   84.7110    9.1862 C.3     1  UNL1        0.0055
      5 C          62.7225   86.0437    8.8297 C.3     1  UNL1        0.0045
      6 C          62.5223   85.4790   10.2048 C.3     1  UNL1        0.0203
      7 C          62.2059   85.1013   11.6216 C.3     1  UNL1        0.0214
      8 C          62.6001   83.8624   12.3697 C.3     1  UNL1        0.0724
      9 C          61.7440   86.7307   10.4833 C.ar    1  UNL1       -0.0228
     10 C          60.4016   86.9364    9.8464 C.ar    1  UNL1       -0.0043
     11 C          59.6233   88.1881   10.1248 C.ar    1  UNL1        0.0035
     12 C          60.1874   89.2340   11.0401 C.ar    1  UNL1        0.0714
     13 C          61.5299   89.0283   11.6770 C.ar    1  UNL1        0.0035
     14 C          62.3081   87.7767   11.3986 C.ar    1  UNL1       -0.0043
     15 C          59.4091   90.4857   11.3186 C.3     1  UNL1        0.4186
     16 F          58.6309   91.7375   11.5970 F       1  UNL1       -0.1659
     17 F          59.9318   91.0928   10.0504 F       1  UNL1       -0.1659
     18 F          58.8864   89.8787   12.5868 F       1  UNL1       -0.1659
     19 C          63.6328   81.5997   12.8855 C.3     1  UNL1        0.0730
     20 C          62.6500   81.3873   13.9986 C.3     1  UNL1        0.0294
     21 C          62.3125   82.5164   14.9267 C.3     1  UNL1        0.0666
     22 S          63.4080   83.3472   15.5265 S.3     1  UNL1       -0.0756
     23 C          64.8509   86.0138   14.3194 C.3     1  UNL1        0.1340
     24 N          63.7975   85.9881   15.3870 N.ar    1  UNL1       -0.2884
     25 C          63.1343   84.7623   15.9418 C.ar    1  UNL1        0.1932
     26 N          62.1493   85.2002   16.9849 N.ar    1  UNL1       -0.1221
     27 N          62.2037   86.6965   17.0747 N.ar    1  UNL1       -0.1282
     28 C          63.2224   87.1834   16.0871 C.ar    1  UNL1        0.1684
     29 C          63.5996   88.6145   15.8427 C.ar    1  UNL1        0.0585
     30 C          64.4259   88.9782   14.6448 C.ar    1  UNL1        0.0272
     31 C          64.8032   90.4093   14.4004 C.ar    1  UNL1        0.1223
     32 N          64.3541   91.4766   15.3539 N.ar    1  UNL1       -0.1464
     33 N          63.5278   91.1129   16.5518 N.ar    1  UNL1       -0.1463
     34 C          63.1506   89.6819   16.7962 C.ar    1  UNL1        0.1252
@<TRIPOS>BOND
     1    23    24    1
     2    24    25   ar
     3    25    22    1
     4    22    21    1
     5    21    20    1
     6    20    19    1
     7    19     1    1
     8     1     2    1
     9     2     3    1
    10     3     4    1
    11     4     5    1
    12     5     6    1
    13     6     9    1
    14     9    10   ar
    15    10    11   ar
    16    11    12   ar
    17    12    15    1
    18    15    16    1
    19    15    17    1
    20    15    18    1
    21    12    13   ar
    22    13    14   ar
    23     6     7    1
    24     7     8    1
    25    25    26   ar
    26    26    27   ar
    27    27    28   ar
    28    28    29    1
    29    29    30   ar
    30    30    31   ar
    31    31    32   ar
    32    32    33   ar
    33    33    34   ar
    34    28    24   ar
    35    34    29   ar
    36     8     1    1
    37     6     4    1
    38    14     9   ar
@<TRIPOS>MOLECULE
*****
 34 38 0 0 0
SMALL
GASTEIGER

@<TRIPOS>ATOM
      1 N          63.9052   87.6620   14.7527 N.3     1  UNL1       -0.2726
      2 C          63.5094   87.4106   16.1776 C.3     1  UNL1        0.0721
      3 C          63.0391   86.1322   16.8058 C.3     1  UNL1        0.0177
      4 C          62.8484   84.7897   16.1645 C.3     1  UNL1        0.0055
      5 C          62.5928   83.3781   15.7264 C.3     1  UNL1        0.0045
      6 C          63.0809   84.3939   14.7365 C.3     1  UNL1        0.0203
      7 C          63.5615   85.2429   13.5971 C.3     1  UNL1        0.0214
      8 C          63.9284   86.6973   13.6043 C.3     1  UNL1        0.0724
      9 C          63.0311   83.2774   13.7360 C.ar    1  UNL1       -0.0228
     10 C          62.4974   81.9342   14.1372 C.ar    1  UNL1       -0.0043
     11 C          62.4477   80.8176   13.1367 C.ar    1  UNL1        0.0035
     12 C          62.9316   81.0444   11.7351 C.ar    1  UNL1        0.0714
     13 C          63.4653   82.3877   11.3339 C.ar    1  UNL1        0.0035
     14 C          63.5150   83.5041   12.3344 C.ar    1  UNL1       -0.0043
     15 C          62.8819   79.9279   10.7346 C.3     1  UNL1        0.4186
     16 F          62.8321   78.8115    9.7340 F       1  UNL1       -0.1659
     17 F          63.2734   80.8846    9.6476 F       1  UNL1       -0.1659
     18 F          62.4903   78.9712   11.8215 F       1  UNL1       -0.1659
     19 C          64.3345   89.0635   14.4342 C.3     1  UNL1        0.0730
     20 C          63.9344   90.1937   15.3356 C.3     1  UNL1        0.0294
     21 C          64.6902   91.4887   15.2954 C.3     1  UNL1        0.0666
     22 S          65.8749   91.6379   14.3874 S.3     1  UNL1       -0.0756
     23 C          65.4803   92.0918   11.1800 C.3     1  UNL1        0.1340
     24 N          65.9126   93.1316   12.1710 N.ar    1  UNL1       -0.2884
     25 C          66.0939   92.9229   13.6453 C.ar    1  UNL1        0.1932
     26 N          66.5328   94.2249   14.2471 N.ar    1  UNL1       -0.1221
     27 N          66.6226   95.2381   13.1449 N.ar    1  UNL1       -0.1282
     28 C          66.2393   94.5624   11.8617 C.ar    1  UNL1        0.1684
     29 C          66.1912   95.2049   10.5070 C.ar    1  UNL1        0.0585
     30 C          67.2079   94.8387    9.4668 C.ar    1  UNL1        0.0272
     31 C          67.1598   95.4812    8.1122 C.ar    1  UNL1        0.1223
     32 N          66.0949   96.4898    7.7979 N.ar    1  UNL1       -0.1464
     33 N          65.0782   96.8560    8.8382 N.ar    1  UNL1       -0.1463
     34 C          65.1263   96.2135   10.1927 C.ar    1  UNL1        0.1252
@<TRIPOS>BOND
     1    23    24    1
     2    24    25   ar
     3    25    22    1
     4    22    21    1
     5    21    20    1
     6    20    19    1
     7    19     1    1
     8     1     2    1
     9     2     3    1
    10     3     4    1
    11     4     5    1
    12     5     6    1
    13     6     9    1
    14     9    10   ar
    15    10    11   ar
    16    11    12   ar
    17    12    15    1
    18    15    16    1
    19    15    17    1
    20    15    18    1
    21    12    13   ar
    22    13    14   ar
    23     6     7    1
    24     7     8    1
    25    25    26   ar
    26    26    27   ar
    27    27    28   ar
    28    28    29    1
    29    29    30   ar
    30    30    31   ar
    31    31    32   ar
    32    32    33   ar
    33    33    34   ar
    34    28    24   ar
    35    34    29   ar
    36     8     1    1
    37     6     4    1
    38    14     9   ar
@<TRIPOS>MOLECULE
*****
 34 38 0 0 0
SMALL
GASTEIGER

@<TRIPOS>ATOM
      1 N          62.6341   85.2562    9.3415 N.3     1  UNL1       -0.2726
      2 C          63.4229   83.9937    9.1572 C.3     1  UNL1        0.0721
      3 C          64.1179   83.1651   10.1967 C.3     1  UNL1        0.0177
      4 C          64.1958   83.3943   11.6771 C.3     1  UNL1        0.0055
      5 C          64.3960   83.4358   13.1630 C.3     1  UNL1        0.0045
      6 C          63.5978   84.5088   12.4836 C.3     1  UNL1        0.0203
      7 C          62.7744   85.6692   12.0089 C.3     1  UNL1        0.0214
      8 C          62.3454   86.0019   10.6106 C.3     1  UNL1        0.0724
      9 C          63.4285   85.0941   13.8543 C.ar    1  UNL1       -0.0228
     10 C          62.5522   84.4078   14.8598 C.ar    1  UNL1       -0.0043
     11 C          62.3828   84.9931   16.2305 C.ar    1  UNL1        0.0035
     12 C          63.0898   86.2647   16.5956 C.ar    1  UNL1        0.0714
     13 C          63.9661   86.9510   15.5900 C.ar    1  UNL1        0.0035
     14 C          64.1355   86.3657   14.2194 C.ar    1  UNL1       -0.0043
     15 C          62.9205   86.8501   17.9662 C.3     1  UNL1        0.4186
     16 F          62.7512   87.4355   19.3369 F       1  UNL1       -0.1659
     17 F          63.3851   88.1815   17.4549 F       1  UNL1       -0.1659
     18 F          62.4559   85.5187   18.4776 F       1  UNL1       -0.1659
     19 C          62.0577   85.8517    8.0913 C.3     1  UNL1        0.0730
     20 C          60.5706   85.9635    7.9303 C.3     1  UNL1        0.0294
     21 C          59.7761   86.8170    8.8739 C.3     1  UNL1        0.0666
     22 S          60.1046   88.2728    9.0259 S.3     1  UNL1       -0.0756
     23 C          62.9792   89.6242    9.7738 C.3     1  UNL1        0.1340
     24 N          61.8226   89.4373   10.7104 N.ar    1  UNL1       -0.2884
     25 C          60.5013   88.8160   10.3666 C.ar    1  UNL1        0.1932
     26 N          59.6463   88.8335   11.5990 N.ar    1  UNL1       -0.1221
     27 N          60.4392   89.4654   12.7043 N.ar    1  UNL1       -0.1282
     28 C          61.7842   89.8386   12.1551 C.ar    1  UNL1        0.1684
     29 C          62.8958   90.4975   12.9171 C.ar    1  UNL1        0.0585
     30 C          63.1303   90.1453   14.3561 C.ar    1  UNL1        0.0272
     31 C          64.2418   90.8042   15.1180 C.ar    1  UNL1        0.1223
     32 N          65.1188   91.8152   14.4407 N.ar    1  UNL1       -0.1464
     33 N          64.8843   92.1674   13.0016 N.ar    1  UNL1       -0.1463
     34 C          63.7728   91.5085   12.2398 C.ar    1  UNL1        0.1252
@<TRIPOS>BOND
     1    23    24    1
     2    24    25   ar
     3    25    22    1
     4    22    21    1
     5    21    20    1
     6    20    19    1
     7    19     1    1
     8     1     2    1
     9     2     3    1
    10     3     4    1
    11     4     5    1
    12     5     6    1
    13     6     9    1
    14     9    10   ar
    15    10    11   ar
    16    11    12   ar
    17    12    15    1
    18    15    16    1
    19    15    17    1
    20    15    18    1
    21    12    13   ar
    22    13    14   ar
    23     6     7    1
    24     7     8    1
    25    25    26   ar
    26    26    27   ar
    27    27    28   ar
    28    28    29    1
    29    29    30   ar
    30    30    31   ar
    31    31    32   ar
    32    32    33   ar
    33    33    34   ar
    34    28    24   ar
    35    34    29   ar
    36     8     1    1
    37     6     4    1
    38    14     9   ar
@<TRIPOS>MOLECULE
*****
 34 38 0 0 0
SMALL
GASTEIGER

@<TRIPOS>ATOM
      1 N          59.9738   88.3512    8.2615 N.3     1  UNL1       -0.2726
      2 C          60.0580   86.8557    8.3405 C.3     1  UNL1        0.0721
      3 C          60.8481   86.0127    9.2971 C.3     1  UNL1        0.0177
      4 C          61.7492   86.4570   10.4110 C.3     1  UNL1        0.0055
      5 C          62.6836   86.6829   11.5624 C.3     1  UNL1        0.0045
      6 C          62.0826   87.8541   10.8434 C.3     1  UNL1        0.0203
      7 C          61.5973   89.1519   10.2687 C.3     1  UNL1        0.0214
      8 C          60.6589   89.3732    9.1196 C.3     1  UNL1        0.0724
      9 C          62.8575   88.7010   11.8090 C.ar    1  UNL1       -0.0228
     10 C          63.0326   90.1675   11.5472 C.ar    1  UNL1       -0.0043
     11 C          63.8075   91.0144   12.5129 C.ar    1  UNL1        0.0035
     12 C          64.4072   90.3947   13.7402 C.ar    1  UNL1        0.0714
     13 C          64.2321   88.9281   14.0020 C.ar    1  UNL1        0.0035
     14 C          63.4572   88.0813   13.0364 C.ar    1  UNL1       -0.0043
     15 C          65.1821   91.2415   14.7058 C.3     1  UNL1        0.4186
     16 F          65.9570   92.0884   15.6715 F       1  UNL1       -0.1659
     17 F          64.0774   91.1056   15.7114 F       1  UNL1       -0.1659
     18 F          66.2868   91.3775   13.7003 F       1  UNL1       -0.1659
     19 C          59.0873   88.8970    7.1816 C.3     1  UNL1        0.0730
     20 C          59.6171   89.9217    6.2228 C.3     1  UNL1        0.0294
     21 C          58.6676   90.7345    5.3934 C.3     1  UNL1        0.0666
     22 S          59.1375   92.0001    4.7395 S.3     1  UNL1       -0.0756
     23 C          59.8394   93.6909    2.0380 C.3     1  UNL1        0.1340
     24 N          60.7874   92.8128    2.7998 N.ar    1  UNL1       -0.2884
     25 C          60.4647   92.0356    4.0415 C.ar    1  UNL1        0.1932
     26 N          61.7024   91.3003    4.4628 N.ar    1  UNL1       -0.1221
     27 N          62.7899   91.6229    3.4815 N.ar    1  UNL1       -0.1282
     28 C          62.2244   92.5577    2.4537 C.ar    1  UNL1        0.1684
     29 C          62.9659   93.1360    1.2849 C.ar    1  UNL1        0.0585
     30 C          62.2993   93.2263   -0.0558 C.ar    1  UNL1        0.0272
     31 C          63.0408   93.8045   -1.2245 C.ar    1  UNL1        0.1223
     32 N          64.4488   94.2924   -1.0525 N.ar    1  UNL1       -0.1464
     33 N          65.1153   94.2021    0.2882 N.ar    1  UNL1       -0.1463
     34 C          64.3738   93.6239    1.4569 C.ar    1  UNL1        0.1252
@<TRIPOS>BOND
     1    23    24    1
     2    24    25   ar
     3    25    22    1
     4    22    21    1
     5    21    20    1
     6    20    19    1
     7    19     1    1
     8     1     2    1
     9     2     3    1
    10     3     4    1
    11     4     5    1
    12     5     6    1
    13     6     9    1
    14     9    10   ar
    15    10    11   ar
    16    11    12   ar
    17    12    15    1
    18    15    16    1
    19    15    17    1
    20    15    18    1
    21    12    13   ar
    22    13    14   ar
    23     6     7    1
    24     7     8    1
    25    25    26   ar
    26    26    27   ar
    27    27    28   ar
    28    28    29    1
    29    29    30   ar
    30    30    31   ar
    31    31    32   ar
    32    32    33   ar
    33    33    34   ar
    34    28    24   ar
    35    34    29   ar
    36     8     1    1
    37     6     4    1
    38    14     9   ar
@<TRIPOS>MOLECULE
*****
 34 38 0 0 0
SMALL
GASTEIGER

@<TRIPOS>ATOM
      1 N          63.5281   88.9653   13.8673 N.3     1  UNL1       -0.2726
      2 C          63.2160   90.4009   13.5647 C.3     1  UNL1        0.0721
      3 C          62.6425   90.9888   12.3095 C.3     1  UNL1        0.0177
      4 C          62.2394   90.2864   11.0469 C.3     1  UNL1        0.0055
      5 C          61.7795   89.7873    9.7093 C.3     1  UNL1        0.0045
      6 C          62.3104   88.8225   10.7277 C.3     1  UNL1        0.0203
      7 C          62.8019   87.6995   11.5922 C.3     1  UNL1        0.0214
      8 C          63.3438   87.7630   12.9894 C.3     1  UNL1        0.0724
      9 C          62.0467   87.7644    9.6976 C.ar    1  UNL1       -0.0228
     10 C          63.1052   86.7517    9.3748 C.ar    1  UNL1       -0.0043
     11 C          62.8415   85.6936    8.3447 C.ar    1  UNL1        0.0035
     12 C          61.5195   85.6483    7.6375 C.ar    1  UNL1        0.0714
     13 C          60.4610   86.6610    7.9604 C.ar    1  UNL1        0.0035
     14 C          60.7247   87.7190    8.9904 C.ar    1  UNL1       -0.0043
     15 C          61.2558   84.5903    6.6075 C.3     1  UNL1        0.4186
     16 F          60.9921   83.5322    5.5774 F       1  UNL1       -0.1659
     17 F          62.7312   84.4442    6.3799 F       1  UNL1       -0.1659
     18 F          59.7803   84.7363    6.8350 F       1  UNL1       -0.1659
     19 C          64.1002   88.6964   15.2276 C.3     1  UNL1        0.0730
     20 C          63.2541   88.8963   16.4499 C.3     1  UNL1        0.0294
     21 C          62.9405   87.7330   17.3434 C.3     1  UNL1        0.0666
     22 S          63.5635   86.3944   17.0785 S.3     1  UNL1       -0.0756
     23 C          65.1999   85.0402   14.6010 C.3     1  UNL1        0.1340
     24 N          63.7376   84.8704   14.8893 N.ar    1  UNL1       -0.2884
     25 C          62.9855   85.4929   16.0281 C.ar    1  UNL1        0.1932
     26 N          61.5539   85.0556   15.9321 N.ar    1  UNL1       -0.1221
     27 N          61.4213   84.1629   14.7340 N.ar    1  UNL1       -0.1282
     28 C          62.7709   84.0485   14.0896 C.ar    1  UNL1        0.1684
     29 C          63.0966   83.2518   12.8610 C.ar    1  UNL1        0.0585
     30 C          63.9155   83.8656   11.7643 C.ar    1  UNL1        0.0272
     31 C          64.2412   83.0690   10.5358 C.ar    1  UNL1        0.1223
     32 N          63.7479   81.6585   10.4039 N.ar    1  UNL1       -0.1464
     33 N          62.9290   81.0447   11.5005 N.ar    1  UNL1       -0.1463
     34 C          62.6034   81.8414   12.7291 C.ar    1  UNL1        0.1252
@<TRIPOS>BOND
     1    23    24    1
     2    24    25   ar
     3    25    22    1
     4    22    21    1
     5    21    20    1
     6    20    19    1
     7    19     1    1
     8     1     2    1
     9     2     3    1
    10     3     4    1
    11     4     5    1
    12     5     6    1
    13     6     9    1
    14     9    10   ar
    15    10    11   ar
    16    11    12   ar
    17    12    15    1
    18    15    16    1
    19    15    17    1
    20    15    18    1
    21    12    13   ar
    22    13    14   ar
    23     6     7    1
    24     7     8    1
    25    25    26   ar
    26    26    27   ar
    27    27    28   ar
    28    28    29    1
    29    29    30   ar
    30    30    31   ar
    31    31    32   ar
    32    32    33   ar
    33    33    34   ar
    34    28    24   ar
    35    34    29   ar
    36     8     1    1
    37     6     4    1
    38    14     9   ar
@<TRIPOS>MOLECULE
*****
 34 38 0 0 0
SMALL
GASTEIGER

@<TRIPOS>ATOM
      1 N          63.8751   87.1786   14.9279 N.3     1  UNL1       -0.2726
      2 C          63.8178   85.8964   15.7043 C.3     1  UNL1        0.0721
      3 C          63.4976   84.5171   15.2095 C.3     1  UNL1        0.0177
      4 C          63.1556   84.0792   13.8161 C.3     1  UNL1        0.0055
      5 C          62.7971   83.4354   12.5097 C.3     1  UNL1        0.0045
      6 C          63.0494   84.9126   12.5735 C.3     1  UNL1        0.0203
      7 C          63.2589   86.3897   12.4173 C.3     1  UNL1        0.0214
      8 C          63.6264   87.3982   13.4651 C.3     1  UNL1        0.0724
      9 C          62.7630   84.9113   11.1010 C.ar    1  UNL1       -0.0228
     10 C          63.5588   84.0315   10.1830 C.ar    1  UNL1       -0.0043
     11 C          63.2723   84.0303    8.7106 C.ar    1  UNL1        0.0035
     12 C          62.1902   84.9087    8.1563 C.ar    1  UNL1        0.0714
     13 C          61.3944   85.7885    9.0744 C.ar    1  UNL1        0.0035
     14 C          61.6808   85.7897   10.5467 C.ar    1  UNL1       -0.0043
     15 C          61.9037   84.9075    6.6839 C.3     1  UNL1        0.4186
     16 F          61.6173   84.9062    5.2115 F       1  UNL1       -0.1659
     17 F          63.3347   84.5539    6.4059 F       1  UNL1       -0.1659
     18 F          60.4727   85.2610    6.9619 F       1  UNL1       -0.1659
     19 C          64.2277   88.4033   15.7191 C.3     1  UNL1        0.0730
     20 C          63.1705   89.4166   16.0439 C.3     1  UNL1        0.0294
     21 C          63.5185   90.8749   16.0907 C.3     1  UNL1        0.0666
     22 S          64.8068   91.3581   15.4933 S.3     1  UNL1       -0.0756
     23 C          66.8883   93.4336   14.0759 C.3     1  UNL1        0.1340
     24 N          65.8419   92.6184   13.3754 N.ar    1  UNL1       -0.2884
     25 C          64.8852   91.6644   14.0270 C.ar    1  UNL1        0.1932
     26 N          64.0206   91.0705   12.9547 N.ar    1  UNL1       -0.1221
     27 N          64.4429   91.6575   11.6406 N.ar    1  UNL1       -0.1282
     28 C          65.5686   92.6142   11.9006 C.ar    1  UNL1        0.1684
     29 C          66.2936   93.4243   10.8672 C.ar    1  UNL1        0.0585
     30 C          67.3411   92.7800   10.0083 C.ar    1  UNL1        0.0272
     31 C          68.0661   93.5902    8.9749 C.ar    1  UNL1        0.1223
     32 N          67.7436   95.0447    8.8003 N.ar    1  UNL1       -0.1464
     33 N          66.6961   95.6890    9.6592 N.ar    1  UNL1       -0.1463
     34 C          65.9712   94.8789   10.6926 C.ar    1  UNL1        0.1252
@<TRIPOS>BOND
     1    23    24    1
     2    24    25   ar
     3    25    22    1
     4    22    21    1
     5    21    20    1
     6    20    19    1
     7    19     1    1
     8     1     2    1
     9     2     3    1
    10     3     4    1
    11     4     5    1
    12     5     6    1
    13     6     9    1
    14     9    10   ar
    15    10    11   ar
    16    11    12   ar
    17    12    15    1
    18    15    16    1
    19    15    17    1
    20    15    18    1
    21    12    13   ar
    22    13    14   ar
    23     6     7    1
    24     7     8    1
    25    25    26   ar
    26    26    27   ar
    27    27    28   ar
    28    28    29    1
    29    29    30   ar
    30    30    31   ar
    31    31    32   ar
    32    32    33   ar
    33    33    34   ar
    34    28    24   ar
    35    34    29   ar
    36     8     1    1
    37     6     4    1
    38    14     9   ar
@<TRIPOS>MOLECULE
*****
 34 38 0 0 0
SMALL
GASTEIGER

@<TRIPOS>ATOM
      1 N          60.1107   88.5616    8.3523 N.3     1  UNL1       -0.2726
      2 C          60.6805   89.7720    9.0309 C.3     1  UNL1        0.0721
      3 C          61.6143   89.8341   10.2031 C.3     1  UNL1        0.0177
      4 C          62.2090   88.7015   10.9863 C.3     1  UNL1        0.0055
      5 C          62.9044   87.7279   11.8911 C.3     1  UNL1        0.0045
      6 C          62.0167   87.2268   10.7907 C.3     1  UNL1        0.0203
      7 C          61.1822   86.5206    9.7636 C.3     1  UNL1        0.0214
      8 C          60.3340   87.1146    8.6784 C.3     1  UNL1        0.0724
      9 C          62.3727   85.8546   11.2813 C.ar    1  UNL1       -0.0228
     10 C          62.4015   85.5686   12.7534 C.ar    1  UNL1       -0.0043
     11 C          62.7574   84.1964   13.2440 C.ar    1  UNL1        0.0035
     12 C          63.0845   83.1104   12.2623 C.ar    1  UNL1        0.0714
     13 C          63.0557   83.3965   10.7901 C.ar    1  UNL1        0.0035
     14 C          62.6998   84.7686   10.2996 C.ar    1  UNL1       -0.0043
     15 C          63.4405   81.7383   12.7528 C.3     1  UNL1        0.4186
     16 F          63.7964   80.3662   13.2433 F       1  UNL1       -0.1659
     17 F          61.9835   81.3939   12.8462 F       1  UNL1       -0.1659
     18 F          64.8974   82.0828   12.6594 F       1  UNL1       -0.1659
     19 C          59.1968   88.8344    7.1946 C.3     1  UNL1        0.0730
     20 C          59.6222   89.7784    6.1094 C.3     1  UNL1        0.0294
     21 C          58.6102   90.6670    5.4490 C.3     1  UNL1        0.0666
     22 S          59.0499   91.9332    4.7754 S.3     1  UNL1       -0.0756
     23 C          59.7278   93.6133    2.0612 C.3     1  UNL1        0.1340
     24 N          60.6913   92.7643    2.8364 N.ar    1  UNL1       -0.2884
     25 C          60.3797   91.9921    4.0840 C.ar    1  UNL1        0.1932
     26 N          61.6314   91.2890    4.5187 N.ar    1  UNL1       -0.1221
     27 N          62.7165   91.6268    3.5398 N.ar    1  UNL1       -0.1282
     28 C          62.1355   92.5386    2.5001 C.ar    1  UNL1        0.1684
     29 C          62.8699   93.1222    1.3295 C.ar    1  UNL1        0.0585
     30 C          64.2220   93.7415    1.5254 C.ar    1  UNL1        0.0272
     31 C          64.9563   94.3251    0.3548 C.ar    1  UNL1        0.1223
     32 N          64.3386   94.2893   -1.0116 N.ar    1  UNL1       -0.1464
     33 N          62.9865   93.6700   -1.2075 N.ar    1  UNL1       -0.1463
     34 C          62.2522   93.0864   -0.0369 C.ar    1  UNL1        0.1252
@<TRIPOS>BOND
     1    23    24    1
     2    24    25   ar
     3    25    22    1
     4    22    21    1
     5    21    20    1
     6    20    19    1
     7    19     1    1
     8     1     2    1
     9     2     3    1
    10     3     4    1
    11     4     5    1
    12     5     6    1
    13     6     9    1
    14     9    10   ar
    15    10    11   ar
    16    11    12   ar
    17    12    15    1
    18    15    16    1
    19    15    17    1
    20    15    18    1
    21    12    13   ar
    22    13    14   ar
    23     6     7    1
    24     7     8    1
    25    25    26   ar
    26    26    27   ar
    27    27    28   ar
    28    28    29    1
    29    29    30   ar
    30    30    31   ar
    31    31    32   ar
    32    32    33   ar
    33    33    34   ar
    34    28    24   ar
    35    34    29   ar
    36     8     1    1
    37     6     4    1
    38    14     9   ar
