@<TRIPOS>MOLECULE
*****
 36 39 0 0 0
SMALL
GASTEIGER

@<TRIPOS>ATOM
      1 C          62.1202   79.2809   14.3823 C.3     1  UNL1        0.0334
      2 C          62.3426   80.5067   13.5469 C.ar    1  UNL1        0.0071
      3 C          62.4423   81.8526   14.2016 C.ar    1  UNL1        0.0156
      4 C          62.6647   83.0784   13.3662 C.ar    1  UNL1        0.0673
      5 C          62.7872   82.9584   11.8761 C.ar    1  UNL1        0.0295
      6 C          62.6874   81.6125   11.2214 C.ar    1  UNL1        0.0315
      7 C          62.4651   80.3867   12.0568 C.ar    1  UNL1        0.1363
      8 F          62.3653   79.0408   11.4020 F       1  UNL1       -0.2045
      9 C          63.0019   84.3334   11.3164 C.ar    1  UNL1        0.0875
     10 C          63.0121   85.3032   12.4607 C.ar    1  UNL1        0.0939
     11 N          62.8036   84.5276   13.7276 N.ar    1  UNL1       -0.2745
     12 C          63.1981   86.7880   12.3564 C.ar    1  UNL1        0.0982
     13 C          62.6417   87.5327   11.1791 C.ar    1  UNL1        0.0220
     14 C          62.8277   89.0174   11.0748 C.ar    1  UNL1        0.0231
     15 C          63.5700   89.7575   12.1478 C.ar    1  UNL1        0.1410
     16 C          64.1264   89.0129   13.3250 C.ar    1  UNL1        0.1187
     17 N          63.9404   87.5281   13.4293 N.ar    1  UNL1       -0.2409
     18 S          63.7560   91.2423   12.0434 S.O2    1  UNL1        0.0619
     19 O          63.7166   91.3524   13.5389 O.2     1  UNL1       -0.1529
     20 O          63.7954   91.1323   10.5480 O.2     1  UNL1       -0.1529
     21 N          63.9420   92.7271   11.9390 N.3     1  UNL1       -0.1723
     22 H          63.6275   93.1261   12.8235 H       1  UNL1        0.1491
     23 C          65.3034   93.2952   11.6674 C.3     1  UNL1        0.1701
     24 C          65.4543   94.4801   10.7602 C.3     1  UNL1        0.0278
     25 C          66.5139   92.6783   12.3030 C.3     1  UNL1        0.4118
     26 F          67.7245   92.0615   12.9387 F       1  UNL1       -0.1685
     27 F          66.1328   93.2873   13.6198 F       1  UNL1       -0.1685
     28 F          66.8950   92.0694   10.9862 F       1  UNL1       -0.1685
     29 C          62.7445   85.1006   15.1126 C.ar    1  UNL1        0.2369
     30 N          61.4175   85.4005   15.7441 N.ar    1  UNL1       -0.2095
     31 C          61.3583   85.9735   17.1291 C.ar    1  UNL1        0.1037
     32 C          62.6262   86.2465   17.8825 C.ar    1  UNL1        0.0415
     33 C          63.9533   85.9465   17.2510 C.ar    1  UNL1        0.1037
     34 N          64.0125   85.3736   15.8660 N.ar    1  UNL1       -0.2095
     35 C          63.1760   84.6780    9.8670 C.1     1  UNL1        0.1020
     36 N          63.3499   85.0227    8.4175 N.1     1  UNL1       -0.1908
@<TRIPOS>BOND
     1     1     2    1
     2     2     3   ar
     3     3     4   ar
     4     4     5   ar
     5     5     6   ar
     6     6     7   ar
     7     7     8    1
     8     5     9   ar
     9     9    35    1
    10    35    36    3
    11     9    10   ar
    12    10    12    1
    13    12    13   ar
    14    13    14   ar
    15    14    15   ar
    16    15    18    1
    17    18    19    2
    18    18    20    2
    19    18    21    1
    20    21    23    1
    21    23    24    1
    22    23    25    1
    23    25    26    1
    24    25    27    1
    25    25    28    1
    26    15    16   ar
    27    16    17   ar
    28    10    11   ar
    29    11    29    1
    30    29    30   ar
    31    30    31   ar
    32    31    32   ar
    33    32    33   ar
    34    33    34   ar
    35     7     2   ar
    36    17    12   ar
    37    34    29   ar
    38    11     4   ar
    39    21    22    1
@<TRIPOS>MOLECULE
*****
 36 39 0 0 0
SMALL
GASTEIGER

@<TRIPOS>ATOM
      1 C          62.0112   79.2027   11.6666 C.3     1  UNL1        0.0334
      2 C          62.3832   80.4667   12.3834 C.ar    1  UNL1        0.0071
      3 C          62.3819   81.7741   11.6481 C.ar    1  UNL1        0.0156
      4 C          62.7540   83.0381   12.3650 C.ar    1  UNL1        0.0673
      5 C          63.1273   82.9948   13.8171 C.ar    1  UNL1        0.0295
      6 C          63.1286   81.6874   14.5524 C.ar    1  UNL1        0.0315
      7 C          62.7566   80.4234   13.8355 C.ar    1  UNL1        0.1363
      8 F          62.7579   79.1159   14.5709 F       1  UNL1       -0.2045
      9 C          63.4463   84.3933   14.2556 C.ar    1  UNL1        0.0875
     10 C          63.2700   85.3010   13.0745 C.ar    1  UNL1        0.0939
     11 N          62.8421   84.4635   11.9060 N.ar    1  UNL1       -0.2745
     12 C          63.4841   86.7857   13.0638 C.ar    1  UNL1        0.0982
     13 C          64.2581   87.4398   14.1697 C.ar    1  UNL1        0.0220
     14 C          64.4722   88.9244   14.1590 C.ar    1  UNL1        0.0231
     15 C          63.9121   89.7549   13.0424 C.ar    1  UNL1        0.1410
     16 C          63.1380   89.1008   11.9366 C.ar    1  UNL1        0.1187
     17 N          62.9240   87.6162   11.9473 N.ar    1  UNL1       -0.2409
     18 S          64.1262   91.2395   13.0318 S.O2    1  UNL1        0.0619
     19 O          64.0137   91.2665   14.5274 O.2     1  UNL1       -0.1529
     20 O          64.2386   91.2125   11.5363 O.2     1  UNL1       -0.1529
     21 N          64.3402   92.7241   13.0211 N.3     1  UNL1       -0.1723
     22 H          64.1020   93.0627   13.9533 H       1  UNL1        0.1491
     23 C          65.6913   93.2847   12.6889 C.3     1  UNL1        0.1701
     24 C          65.8532   94.2071   11.5173 C.3     1  UNL1        0.0278
     25 C          66.8805   92.9229   13.5285 C.3     1  UNL1        0.4118
     26 F          68.0697   92.5611   14.3681 F       1  UNL1       -0.1685
     27 F          66.4057   93.8558   14.6029 F       1  UNL1       -0.1685
     28 F          67.3552   91.9901   12.4541 F       1  UNL1       -0.1685
     29 C          62.5532   84.9635   10.5216 C.ar    1  UNL1        0.2369
     30 N          63.4467   84.5734    9.3816 N.ar    1  UNL1       -0.2095
     31 C          63.1578   85.0734    7.9973 C.ar    1  UNL1        0.1037
     32 C          61.9754   85.9634    7.7529 C.ar    1  UNL1        0.0415
     33 C          61.0819   86.3535    8.8928 C.ar    1  UNL1        0.1037
     34 N          61.3708   85.8536   10.2772 N.ar    1  UNL1       -0.2095
     35 C          63.8675   84.8108   15.6334 C.1     1  UNL1        0.1020
     36 N          64.2887   85.2284   17.0112 N.1     1  UNL1       -0.1908
@<TRIPOS>BOND
     1     1     2    1
     2     2     3   ar
     3     3     4   ar
     4     4     5   ar
     5     5     6   ar
     6     6     7   ar
     7     7     8    1
     8     5     9   ar
     9     9    35    1
    10    35    36    3
    11     9    10   ar
    12    10    12    1
    13    12    13   ar
    14    13    14   ar
    15    14    15   ar
    16    15    18    1
    17    18    19    2
    18    18    20    2
    19    18    21    1
    20    21    23    1
    21    23    24    1
    22    23    25    1
    23    25    26    1
    24    25    27    1
    25    25    28    1
    26    15    16   ar
    27    16    17   ar
    28    10    11   ar
    29    11    29    1
    30    29    30   ar
    31    30    31   ar
    32    31    32   ar
    33    32    33   ar
    34    33    34   ar
    35     7     2   ar
    36    17    12   ar
    37    34    29   ar
    38    11     4   ar
    39    21    22    1
@<TRIPOS>MOLECULE
*****
 36 39 0 0 0
SMALL
GASTEIGER

@<TRIPOS>ATOM
      1 C          69.2342   92.0902   17.4096 C.3     1  UNL1        0.0334
      2 C          68.3613   92.1894   16.1938 C.ar    1  UNL1        0.0071
      3 C          67.2267   91.2268   16.0045 C.ar    1  UNL1        0.0156
      4 C          66.3537   91.3261   14.7888 C.ar    1  UNL1        0.0673
      5 C          66.6154   92.3880   13.7623 C.ar    1  UNL1        0.0295
      6 C          67.7500   93.3507   13.9515 C.ar    1  UNL1        0.0315
      7 C          68.6230   93.2514   15.1673 C.ar    1  UNL1        0.1363
      8 F          69.7576   94.2141   15.3566 F       1  UNL1       -0.2045
      9 C          65.5939   92.2420   12.6736 C.ar    1  UNL1        0.0875
     10 C          64.7009   91.0899   13.0273 C.ar    1  UNL1        0.0939
     11 N          65.1705   90.5237   14.3345 N.ar    1  UNL1       -0.2745
     12 C          63.5418   90.5914   12.2160 C.ar    1  UNL1        0.0982
     13 C          63.5360   90.7713   10.7269 C.ar    1  UNL1        0.0220
     14 C          62.3770   90.2728    9.9157 C.ar    1  UNL1        0.0231
     15 C          61.2236   89.5944   10.5937 C.ar    1  UNL1        0.1410
     16 C          61.2294   89.4145   12.0828 C.ar    1  UNL1        0.1187
     17 N          62.3885   89.9130   12.8940 N.ar    1  UNL1       -0.2409
     18 S          60.0645   89.0959    9.7825 S.O2    1  UNL1        0.0619
     19 O          60.3250   87.7006   10.2676 O.2     1  UNL1       -0.1529
     20 O          59.8041   90.4912    9.2973 O.2     1  UNL1       -0.1529
     21 N          58.9055   88.5975    8.9712 N.3     1  UNL1       -0.1723
     22 H          58.2615   89.3814    8.8652 H       1  UNL1        0.1491
     23 C          59.1361   88.0379    7.5988 C.3     1  UNL1        0.1701
     24 C          59.0530   88.9348    6.3994 C.3     1  UNL1        0.0278
     25 C          59.4497   86.5813    7.4258 C.3     1  UNL1        0.4118
     26 F          59.7634   85.1246    7.2527 F       1  UNL1       -0.1685
     27 F          57.9956   86.2493    7.5850 F       1  UNL1       -0.1685
     28 F          60.9038   86.9133    7.2666 F       1  UNL1       -0.1685
     29 C          64.5634   89.3597   15.0601 C.ar    1  UNL1        0.2369
     30 N          64.8252   87.9610   14.5857 N.ar    1  UNL1       -0.2095
     31 C          64.2182   86.7969   15.3112 C.ar    1  UNL1        0.1037
     32 C          63.3495   87.0316   16.5113 C.ar    1  UNL1        0.0415
     33 C          63.0877   88.4303   16.9858 C.ar    1  UNL1        0.1037
     34 N          63.6947   89.5944   16.2602 N.ar    1  UNL1       -0.2095
     35 C          65.4846   93.0980   11.4467 C.1     1  UNL1        0.1020
     36 N          65.3754   93.9540   10.2197 N.1     1  UNL1       -0.1908
@<TRIPOS>BOND
     1     1     2    1
     2     2     3   ar
     3     3     4   ar
     4     4     5   ar
     5     5     6   ar
     6     6     7   ar
     7     7     8    1
     8     5     9   ar
     9     9    35    1
    10    35    36    3
    11     9    10   ar
    12    10    12    1
    13    12    13   ar
    14    13    14   ar
    15    14    15   ar
    16    15    18    1
    17    18    19    2
    18    18    20    2
    19    18    21    1
    20    21    23    1
    21    23    24    1
    22    23    25    1
    23    25    26    1
    24    25    27    1
    25    25    28    1
    26    15    16   ar
    27    16    17   ar
    28    10    11   ar
    29    11    29    1
    30    29    30   ar
    31    30    31   ar
    32    31    32   ar
    33    32    33   ar
    34    33    34   ar
    35     7     2   ar
    36    17    12   ar
    37    34    29   ar
    38    11     4   ar
    39    21    22    1
@<TRIPOS>MOLECULE
*****
 36 39 0 0 0
SMALL
GASTEIGER

@<TRIPOS>ATOM
      1 C          62.1440   78.9669    9.6817 C.3     1  UNL1        0.0334
      2 C          62.5095   79.9912   10.7147 C.ar    1  UNL1        0.0071
      3 C          62.4594   81.4511   10.3738 C.ar    1  UNL1        0.0156
      4 C          62.8249   82.4755   11.4068 C.ar    1  UNL1        0.0673
      5 C          63.2404   82.0399   12.7807 C.ar    1  UNL1        0.0295
      6 C          63.2905   80.5801   13.1216 C.ar    1  UNL1        0.0315
      7 C          62.9250   79.5557   12.0886 C.ar    1  UNL1        0.1363
      8 F          62.9751   78.0958   12.4295 F       1  UNL1       -0.2045
      9 C          63.5420   83.2694   13.5853 C.ar    1  UNL1        0.0875
     10 C          63.3129   84.4649   12.7087 C.ar    1  UNL1        0.0939
     11 N          62.8697   83.9742   11.3623 N.ar    1  UNL1       -0.2745
     12 C          63.4950   85.8992   13.1083 C.ar    1  UNL1        0.0982
     13 C          63.1099   86.9964   12.1608 C.ar    1  UNL1        0.0220
     14 C          63.2920   88.4307   12.5605 C.ar    1  UNL1        0.0231
     15 C          63.8592   88.7676   13.9076 C.ar    1  UNL1        0.1410
     16 C          64.2443   87.6704   14.8551 C.ar    1  UNL1        0.1187
     17 N          64.0622   86.2362   14.4554 N.ar    1  UNL1       -0.2409
     18 S          64.0414   90.2020   14.3073 S.O2    1  UNL1        0.0619
     19 O          64.0667   89.7964   15.7512 O.2     1  UNL1       -0.1529
     20 O          64.0161   90.6074   12.8634 O.2     1  UNL1       -0.1529
     21 N          64.2235   91.6362   14.7068 N.3     1  UNL1       -0.1723
     22 H          63.7861   91.7447   15.6219 H       1  UNL1        0.1491
     23 C          65.6029   92.2154   14.8148 C.3     1  UNL1        0.1701
     24 C          66.1316   92.6498   16.1496 C.3     1  UNL1        0.0278
     25 C          66.4537   92.3601   13.5879 C.3     1  UNL1        0.4118
     26 F          67.3045   92.5048   12.3610 F       1  UNL1       -0.1685
     27 F          67.1484   91.0722   13.9178 F       1  UNL1       -0.1685
     28 F          65.7590   93.6480   13.2581 F       1  UNL1       -0.1685
     29 C          62.5308   84.8316   10.1791 C.ar    1  UNL1        0.2369
     30 N          61.3479   85.7523   10.2343 N.ar    1  UNL1       -0.2095
     31 C          61.0089   86.6098    9.0512 C.ar    1  UNL1        0.1037
     32 C          61.8528   86.5464    7.8127 C.ar    1  UNL1        0.0415
     33 C          63.0357   85.6257    7.7575 C.ar    1  UNL1        0.1037
     34 N          63.3747   84.7683    8.9406 N.ar    1  UNL1       -0.2095
     35 C          63.9935   83.2984   15.0154 C.1     1  UNL1        0.1020
     36 N          64.4449   83.3275   16.4457 N.1     1  UNL1       -0.1908
@<TRIPOS>BOND
     1     1     2    1
     2     2     3   ar
     3     3     4   ar
     4     4     5   ar
     5     5     6   ar
     6     6     7   ar
     7     7     8    1
     8     5     9   ar
     9     9    35    1
    10    35    36    3
    11     9    10   ar
    12    10    12    1
    13    12    13   ar
    14    13    14   ar
    15    14    15   ar
    16    15    18    1
    17    18    19    2
    18    18    20    2
    19    18    21    1
    20    21    23    1
    21    23    24    1
    22    23    25    1
    23    25    26    1
    24    25    27    1
    25    25    28    1
    26    15    16   ar
    27    16    17   ar
    28    10    11   ar
    29    11    29    1
    30    29    30   ar
    31    30    31   ar
    32    31    32   ar
    33    32    33   ar
    34    33    34   ar
    35     7     2   ar
    36    17    12   ar
    37    34    29   ar
    38    11     4   ar
    39    21    22    1
@<TRIPOS>MOLECULE
*****
 36 39 0 0 0
SMALL
GASTEIGER

@<TRIPOS>ATOM
      1 C          70.5245   94.0178   15.6849 C.3     1  UNL1        0.0334
      2 C          69.2689   93.2286   15.4601 C.ar    1  UNL1        0.0071
      3 C          68.5021   93.3877   14.1808 C.ar    1  UNL1        0.0156
      4 C          67.2464   92.5985   13.9559 C.ar    1  UNL1        0.0673
      5 C          66.7575   91.6504   15.0104 C.ar    1  UNL1        0.0295
      6 C          67.5244   91.4913   16.2897 C.ar    1  UNL1        0.0315
      7 C          68.7800   92.2805   16.5145 C.ar    1  UNL1        0.1363
      8 F          69.5469   92.1214   17.7939 F       1  UNL1       -0.2045
      9 C          65.4960   91.0114   14.5103 C.ar    1  UNL1        0.0875
     10 C          65.2051   91.5647   13.1467 C.ar    1  UNL1        0.0939
     11 N          66.2869   92.5456   12.8041 N.ar    1  UNL1       -0.2745
     12 C          64.0374   91.2009   12.2783 C.ar    1  UNL1        0.0982
     13 C          64.0144   91.6198   10.8382 C.ar    1  UNL1        0.0220
     14 C          62.8467   91.2560    9.9698 C.ar    1  UNL1        0.0231
     15 C          61.7020   90.4732   10.5416 C.ar    1  UNL1        0.1410
     16 C          61.7249   90.0543   11.9817 C.ar    1  UNL1        0.1187
     17 N          62.8926   90.4182   12.8500 N.ar    1  UNL1       -0.2409
     18 S          60.5342   90.1094    9.6731 S.O2    1  UNL1        0.0619
     19 O          59.6039   90.7681   10.6482 O.2     1  UNL1       -0.1529
     20 O          61.4646   89.4508    8.6981 O.2     1  UNL1       -0.1529
     21 N          59.3666   89.7456    8.8047 N.3     1  UNL1       -0.1723
     22 H          59.1152   90.5850    8.2824 H       1  UNL1        0.1491
     23 C          59.4931   88.6350    7.8045 C.3     1  UNL1        0.1701
     24 C          59.3412   88.9233    6.3403 C.3     1  UNL1        0.0278
     25 C          59.7714   87.2360    8.2684 C.3     1  UNL1        0.4118
     26 F          60.0497   85.8369    8.7324 F       1  UNL1       -0.1685
     27 F          59.0176   87.5066    9.5367 F       1  UNL1       -0.1685
     28 F          60.5252   86.9653    7.0001 F       1  UNL1       -0.1685
     29 C          66.3910   93.3350   11.5329 C.ar    1  UNL1        0.2369
     30 N          67.2667   92.8474   10.4169 N.ar    1  UNL1       -0.2095
     31 C          67.3709   93.6367    9.1456 C.ar    1  UNL1        0.1037
     32 C          66.5993   94.9137    8.9904 C.ar    1  UNL1        0.0415
     33 C          65.7237   95.4013   10.1064 C.ar    1  UNL1        0.1037
     34 N          65.6195   94.6120   11.3776 N.ar    1  UNL1       -0.2095
     35 C          64.6702   89.9972   15.2448 C.1     1  UNL1        0.1020
     36 N          63.8445   88.9829   15.9794 N.1     1  UNL1       -0.1908
@<TRIPOS>BOND
     1     1     2    1
     2     2     3   ar
     3     3     4   ar
     4     4     5   ar
     5     5     6   ar
     6     6     7   ar
     7     7     8    1
     8     5     9   ar
     9     9    35    1
    10    35    36    3
    11     9    10   ar
    12    10    12    1
    13    12    13   ar
    14    13    14   ar
    15    14    15   ar
    16    15    18    1
    17    18    19    2
    18    18    20    2
    19    18    21    1
    20    21    23    1
    21    23    24    1
    22    23    25    1
    23    25    26    1
    24    25    27    1
    25    25    28    1
    26    15    16   ar
    27    16    17   ar
    28    10    11   ar
    29    11    29    1
    30    29    30   ar
    31    30    31   ar
    32    31    32   ar
    33    32    33   ar
    34    33    34   ar
    35     7     2   ar
    36    17    12   ar
    37    34    29   ar
    38    11     4   ar
    39    21    22    1
