@<TRIPOS>MOLECULE
*****
 31 32 0 0 0
SMALL
GASTEIGER

@<TRIPOS>ATOM
      1 C          64.3392   90.8824   14.8391 C.ar    1  UNL1        0.1986
      2 N          63.5329   91.2292   16.0555 N.ar    1  UNL1       -0.0331
      3 O          64.2396   92.3365   16.7797 O.2     1  UNL1       -0.2400
      4 N          65.4825   92.6740   16.0108 N.ar    1  UNL1       -0.0391
      5 C          65.5441   91.7753   14.8114 C.ar    1  UNL1        0.2426
      6 C          66.6214   91.7704   13.7677 C.2     1  UNL1        0.3943
      7 N          68.0640   91.7822   14.1787 N.2     1  UNL1        0.1539
      8 O          69.1413   91.7773   13.1350 O.2     1  UNL1       -0.3110
      9 H          70.0424   91.7846   13.3917 H       1  UNL1        0.3605
     10 N          66.2562   91.7538   12.3130 N.pl3   1  UNL1       -0.1942
     11 H          65.7919   90.9743   11.9309 H       1  UNL1        0.2987
     12 C          66.5983   92.9249   11.4403 C.ar    1  UNL1        0.1364
     13 C          67.3906   92.7177   10.1837 C.ar    1  UNL1        0.0425
     14 C          67.7327   93.8888    9.3111 C.ar    1  UNL1        0.0336
     15 C          67.2826   95.2672    9.6951 C.ar    1  UNL1        0.1465
     16 F          67.6247   96.4383    8.8225 F       1  UNL1       -0.2036
     17 C          66.4902   95.4744   10.9519 C.ar    1  UNL1        0.0654
     18 BR         66.0401   96.8527   11.3359 Br      1  UNL1       -0.0465
     19 C          66.1481   94.3033   11.8245 C.ar    1  UNL1        0.0491
     20 N          64.0000   89.8277   13.8278 N.pl3   1  UNL1       -0.3127
     21 H          64.3766   88.9223   13.9156 H       1  UNL1        0.1484
     22 C          63.0870   90.1524   12.6829 C.3     1  UNL1        0.1074
     23 C          62.6520   89.0698   11.7401 C.3     1  UNL1        0.1137
     24 N          61.1943   88.7518   11.5845 N.3     1  UNL1       -0.1679
     25 H          61.0960   88.2436   10.7056 H       1  UNL1        0.1499
     26 N          59.1727   90.9678   11.5344 N.3     1  UNL1       -0.1934
     27 S          60.1835   89.8598   11.5595 S.O2    1  UNL1        0.0927
     28 O          59.6677   89.4195   12.8974 O.2     1  UNL1       -0.1415
     29 O          60.6993   90.3001   10.2216 O.2     1  UNL1       -0.1415
     30 H          58.6129   90.9366   12.3865 H       1  UNL1        0.1453
     31 H          58.5643   90.8547   10.7236 H       1  UNL1        0.1453
@<TRIPOS>BOND
     1    26    27    1
     2    27    28    2
     3    27    29    2
     4    27    24    1
     5    24    23    1
     6    23    22    1
     7    22    20    1
     8    20     1    1
     9     1     2   ar
    10     2     3   ar
    11     3     4   ar
    12     4     5   ar
    13     5     6    1
    14     6     7    2
    15     7     8    1
    16     6    10    1
    17    10    12    1
    18    12    13   ar
    19    13    14   ar
    20    14    15   ar
    21    15    16    1
    22    15    17   ar
    23    17    18    1
    24    17    19   ar
    25     5     1   ar
    26    19    12   ar
    27    26    30    1
    28    26    31    1
    29    24    25    1
    30    20    21    1
    31     8     9    1
    32    10    11    1
@<TRIPOS>MOLECULE
*****
 31 32 0 0 0
SMALL
GASTEIGER

@<TRIPOS>ATOM
      1 C          62.8481   90.4089   12.5042 C.ar    1  UNL1        0.1986
      2 N          63.9536   91.2258   11.9038 N.ar    1  UNL1       -0.0331
      3 O          63.7087   91.3231   10.4272 O.2     1  UNL1       -0.2400
      4 N          62.4518   90.5663   10.1149 N.ar    1  UNL1       -0.0391
      5 C          61.9199   90.0013   11.3986 C.ar    1  UNL1        0.2426
      6 C          60.6779   89.1740   11.5501 C.2     1  UNL1        0.3943
      7 N          59.7938   89.3605   12.7475 N.2     1  UNL1        0.1539
      8 O          58.5518   88.5332   12.8989 O.2     1  UNL1       -0.3110
      9 H          57.9996   88.6497   13.6469 H       1  UNL1        0.3605
     10 N          60.3199   88.1601   10.5042 N.pl3   1  UNL1       -0.1942
     11 H          59.4835   88.2540    9.9935 H       1  UNL1        0.2987
     12 C          61.2363   87.0032   10.2364 C.ar    1  UNL1        0.1364
     13 C          61.8162   86.8071    8.8671 C.ar    1  UNL1        0.0425
     14 C          62.7326   85.6502    8.5993 C.ar    1  UNL1        0.0336
     15 C          63.0690   84.6893    9.7008 C.ar    1  UNL1        0.1465
     16 F          63.9854   83.5323    9.4330 F       1  UNL1       -0.2036
     17 C          62.4891   84.8853   11.0702 C.ar    1  UNL1        0.0654
     18 BR         62.8255   83.9244   12.1718 Br      1  UNL1       -0.0465
     19 C          61.5727   86.0422   11.3380 C.ar    1  UNL1        0.0491
     20 N          62.6972   90.0607   13.9554 N.pl3   1  UNL1       -0.3127
     21 H          61.8158   90.1282   14.3887 H       1  UNL1        0.1484
     22 C          63.8891   89.6097   14.7464 C.3     1  UNL1        0.1074
     23 C          64.3147   88.1719   14.7078 C.3     1  UNL1        0.1137
     24 N          63.6062   87.1570   15.5551 N.3     1  UNL1       -0.1679
     25 H          63.7100   87.4583   16.5241 H       1  UNL1        0.1499
     26 N          64.4335   84.2752   15.4508 N.3     1  UNL1       -0.1934
     27 S          64.0199   85.7161   15.5030 S.O2    1  UNL1        0.0927
     28 O          62.6905   85.3139   16.0696 O.2     1  UNL1       -0.1415
     29 O          65.3492   86.1183   14.9363 O.2     1  UNL1       -0.1415
     30 H          63.6751   83.6908   15.8023 H       1  UNL1        0.1453
     31 H          65.2634   84.1387   16.0279 H       1  UNL1        0.1453
@<TRIPOS>BOND
     1    26    27    1
     2    27    28    2
     3    27    29    2
     4    27    24    1
     5    24    23    1
     6    23    22    1
     7    22    20    1
     8    20     1    1
     9     1     2   ar
    10     2     3   ar
    11     3     4   ar
    12     4     5   ar
    13     5     6    1
    14     6     7    2
    15     7     8    1
    16     6    10    1
    17    10    12    1
    18    12    13   ar
    19    13    14   ar
    20    14    15   ar
    21    15    16    1
    22    15    17   ar
    23    17    18    1
    24    17    19   ar
    25     5     1   ar
    26    19    12   ar
    27    26    30    1
    28    26    31    1
    29    24    25    1
    30    20    21    1
    31     8     9    1
    32    10    11    1
@<TRIPOS>MOLECULE
*****
 31 32 0 0 0
SMALL
GASTEIGER

@<TRIPOS>ATOM
      1 C          63.4045   90.9670   12.3721 C.ar    1  UNL1        0.1986
      2 N          64.5874   91.7705   11.9192 N.ar    1  UNL1       -0.0331
      3 O          64.4080   92.0787   10.4622 O.2     1  UNL1       -0.2400
      4 N          63.1142   91.4656   10.0147 N.ar    1  UNL1       -0.0391
      5 C          62.4940   90.7786   11.1951 C.ar    1  UNL1        0.2426
      6 C          61.1919   90.0339   11.1980 C.2     1  UNL1        0.3943
      7 N          60.6730   89.4354   12.4718 N.2     1  UNL1        0.1539
      8 O          59.3709   88.6907   12.4747 O.2     1  UNL1       -0.3110
      9 H          59.0468   88.3169   13.2704 H       1  UNL1        0.3605
     10 N          60.4088   89.8875    9.9271 N.pl3   1  UNL1       -0.1942
     11 H          59.8728   90.6413    9.5896 H       1  UNL1        0.2987
     12 C          60.4423   88.5929    9.1703 C.ar    1  UNL1        0.1364
     13 C          59.3100   88.2288    8.2564 C.ar    1  UNL1        0.0425
     14 C          59.3435   86.9342    7.4996 C.ar    1  UNL1        0.0336
     15 C          60.5094   86.0036    7.6567 C.ar    1  UNL1        0.1465
     16 F          60.5429   84.7089    6.8999 F       1  UNL1       -0.2036
     17 C          61.6418   86.3676    8.5706 C.ar    1  UNL1        0.0654
     18 BR         62.8076   85.4370    8.7277 Br      1  UNL1       -0.0465
     19 C          61.6083   87.6623    9.3274 C.ar    1  UNL1        0.0491
     20 N          63.1729   90.4439   13.7587 N.pl3   1  UNL1       -0.3127
     21 H          62.2651   90.1916   14.0444 H       1  UNL1        0.1484
     22 C          64.3241   90.3050   14.7101 C.3     1  UNL1        0.1074
     23 C          64.8408   91.5075   15.4429 C.3     1  UNL1        0.1137
     24 N          65.5787   92.5801   14.6979 N.3     1  UNL1       -0.1679
     25 H          65.6850   92.2520   13.7380 H       1  UNL1        0.1499
     26 N          68.2970   93.4497   15.6221 N.3     1  UNL1       -0.1934
     27 S          66.9379   93.0149   15.1600 S.O2    1  UNL1        0.0927
     28 O          66.5120   92.8303   16.5864 O.2     1  UNL1       -0.1415
     29 O          67.3637   93.1996   13.7336 O.2     1  UNL1       -0.1415
     30 H          68.3321   93.4299   16.6413 H       1  UNL1        0.1453
     31 H          68.4805   94.3979   15.2940 H       1  UNL1        0.1453
@<TRIPOS>BOND
     1    26    27    1
     2    27    28    2
     3    27    29    2
     4    27    24    1
     5    24    23    1
     6    23    22    1
     7    22    20    1
     8    20     1    1
     9     1     2   ar
    10     2     3   ar
    11     3     4   ar
    12     4     5   ar
    13     5     6    1
    14     6     7    2
    15     7     8    1
    16     6    10    1
    17    10    12    1
    18    12    13   ar
    19    13    14   ar
    20    14    15   ar
    21    15    16    1
    22    15    17   ar
    23    17    18    1
    24    17    19   ar
    25     5     1   ar
    26    19    12   ar
    27    26    30    1
    28    26    31    1
    29    24    25    1
    30    20    21    1
    31     8     9    1
    32    10    11    1
@<TRIPOS>MOLECULE
*****
 31 32 0 0 0
SMALL
GASTEIGER

@<TRIPOS>ATOM
      1 C          62.8433   90.4429   12.2126 C.ar    1  UNL1        0.1986
      2 N          63.8451   91.2883   11.4834 N.ar    1  UNL1       -0.0331
      3 O          63.4131   91.3864   10.0502 O.2     1  UNL1       -0.2400
      4 N          62.1445   90.6015    9.8938 N.ar    1  UNL1       -0.0391
      5 C          61.7923   90.0184   11.2302 C.ar    1  UNL1        0.2426
      6 C          60.5987   89.1613   11.5313 C.2     1  UNL1        0.3943
      7 N          59.7964   89.4031   12.7754 N.2     1  UNL1        0.1539
      8 O          58.6027   88.5460   13.0765 O.2     1  UNL1       -0.3110
      9 H          58.1016   88.6971   13.8537 H       1  UNL1        0.3605
     10 N          60.2073   88.0624   10.5883 N.pl3   1  UNL1       -0.1942
     11 H          59.3220   88.0751   10.1579 H       1  UNL1        0.2987
     12 C          61.1649   86.9442   10.3010 C.ar    1  UNL1        0.1364
     13 C          61.7233   86.7712    8.9196 C.ar    1  UNL1        0.0425
     14 C          62.6809   85.6529    8.6323 C.ar    1  UNL1        0.0336
     15 C          63.0802   84.7077    9.7264 C.ar    1  UNL1        0.1465
     16 F          64.0378   83.5895    9.4391 F       1  UNL1       -0.2036
     17 C          62.5218   84.8806   11.1078 C.ar    1  UNL1        0.0654
     18 BR         62.9210   83.9354   12.2019 Br      1  UNL1       -0.0465
     19 C          61.5642   85.9989   11.3951 C.ar    1  UNL1        0.0491
     20 N          62.8853   90.0848   13.6686 N.pl3   1  UNL1       -0.3127
     21 H          62.0470   89.9426   14.1649 H       1  UNL1        0.1484
     22 C          64.2043   89.9433   14.3685 C.3     1  UNL1        0.1074
     23 C          64.9016   91.1572   14.9071 C.3     1  UNL1        0.1137
     24 N          65.6007   92.0979   13.9709 N.3     1  UNL1       -0.1679
     25 H          65.1966   91.9476   13.0465 H       1  UNL1        0.1499
     26 N          68.5798   91.9542   13.6476 N.3     1  UNL1       -0.1934
     27 S          67.0902   92.0261   13.8092 S.O2    1  UNL1        0.0927
     28 O          66.9672   92.5906   12.4250 O.2     1  UNL1       -0.1415
     29 O          67.2132   91.4615   15.1935 O.2     1  UNL1       -0.1415
     30 H          68.8385   92.2999   12.7235 H       1  UNL1        0.1453
     31 H          68.8862   90.9864   13.7467 H       1  UNL1        0.1453
@<TRIPOS>BOND
     1    26    27    1
     2    27    28    2
     3    27    29    2
     4    27    24    1
     5    24    23    1
     6    23    22    1
     7    22    20    1
     8    20     1    1
     9     1     2   ar
    10     2     3   ar
    11     3     4   ar
    12     4     5   ar
    13     5     6    1
    14     6     7    2
    15     7     8    1
    16     6    10    1
    17    10    12    1
    18    12    13   ar
    19    13    14   ar
    20    14    15   ar
    21    15    16    1
    22    15    17   ar
    23    17    18    1
    24    17    19   ar
    25     5     1   ar
    26    19    12   ar
    27    26    30    1
    28    26    31    1
    29    24    25    1
    30    20    21    1
    31     8     9    1
    32    10    11    1
@<TRIPOS>MOLECULE
*****
 31 32 0 0 0
SMALL
GASTEIGER

@<TRIPOS>ATOM
      1 C          64.1644   89.7877   13.7003 C.ar    1  UNL1        0.1986
      2 N          64.6157   88.7239   14.6567 N.ar    1  UNL1       -0.0331
      3 O          64.0969   87.4060   14.1626 O.2     1  UNL1       -0.2400
      4 N          63.3251   87.6554   12.9008 N.ar    1  UNL1       -0.0391
      5 C          63.3668   89.1273   12.6151 C.ar    1  UNL1        0.2426
      6 C          62.7238   89.8176   11.4489 C.2     1  UNL1        0.3943
      7 N          63.4838   90.8584   10.6813 N.2     1  UNL1        0.1539
      8 O          62.8407   91.5488    9.5151 O.2     1  UNL1       -0.3110
      9 H          63.3154   92.1989    9.0356 H       1  UNL1        0.3605
     10 N          61.3208   89.4672   11.0503 N.pl3   1  UNL1       -0.1942
     11 H          60.5605   89.9444   11.4546 H       1  UNL1        0.2987
     12 C          61.0763   88.3897   10.0358 C.ar    1  UNL1        0.1364
     13 C          59.7597   88.3176    9.3208 C.ar    1  UNL1        0.0425
     14 C          59.5151   87.2401    8.3063 C.ar    1  UNL1        0.0336
     15 C          60.5872   86.2347    8.0068 C.ar    1  UNL1        0.1465
     16 F          60.3427   85.1572    6.9923 F       1  UNL1       -0.2036
     17 C          61.9039   86.3068    8.7218 C.ar    1  UNL1        0.0654
     18 BR         62.9760   85.3013    8.4223 Br      1  UNL1       -0.0465
     19 C          62.1484   87.3842    9.7364 C.ar    1  UNL1        0.0491
     20 N          64.4591   91.2544   13.8098 N.pl3   1  UNL1       -0.3127
     21 H          63.8787   91.8337   14.3545 H       1  UNL1        0.1484
     22 C          65.6381   91.8384   13.0896 C.3     1  UNL1        0.1074
     23 C          65.9706   93.2921   13.2506 C.3     1  UNL1        0.1137
     24 N          66.3727   93.8252   14.5938 N.3     1  UNL1       -0.1679
     25 H          66.8603   94.7055   14.4274 H       1  UNL1        0.1499
     26 N          68.1296   92.1887   16.3925 N.3     1  UNL1       -0.1934
     27 S          67.2512   93.0069   15.4932 S.O2    1  UNL1        0.0927
     28 O          66.0877   92.7635   16.4081 O.2     1  UNL1       -0.1415
     29 O          68.4146   93.2503   14.5782 O.2     1  UNL1       -0.1415
     30 H          67.5828   91.8472   17.1830 H       1  UNL1        0.1453
     31 H          68.8978   92.7660   16.7346 H       1  UNL1        0.1453
@<TRIPOS>BOND
     1    26    27    1
     2    27    28    2
     3    27    29    2
     4    27    24    1
     5    24    23    1
     6    23    22    1
     7    22    20    1
     8    20     1    1
     9     1     2   ar
    10     2     3   ar
    11     3     4   ar
    12     4     5   ar
    13     5     6    1
    14     6     7    2
    15     7     8    1
    16     6    10    1
    17    10    12    1
    18    12    13   ar
    19    13    14   ar
    20    14    15   ar
    21    15    16    1
    22    15    17   ar
    23    17    18    1
    24    17    19   ar
    25     5     1   ar
    26    19    12   ar
    27    26    30    1
    28    26    31    1
    29    24    25    1
    30    20    21    1
    31     8     9    1
    32    10    11    1
@<TRIPOS>MOLECULE
*****
 31 32 0 0 0
SMALL
GASTEIGER

@<TRIPOS>ATOM
      1 C          63.2654   90.8331   12.7323 C.ar    1  UNL1        0.1986
      2 N          64.5187   91.5970   12.4231 N.ar    1  UNL1       -0.0331
      3 O          64.5140   91.9220   10.9587 O.2     1  UNL1       -0.2400
      4 N          63.2578   91.3590   10.3630 N.ar    1  UNL1       -0.0391
      5 C          62.4861   90.6860   11.4591 C.ar    1  UNL1        0.2426
      6 C          61.1667   89.9884   11.3084 C.2     1  UNL1        0.3943
      7 N          60.5045   89.3701   12.5040 N.2     1  UNL1        0.1539
      8 O          59.1851   88.6724   12.3533 O.2     1  UNL1       -0.3110
      9 H          58.7715   88.2862   13.1001 H       1  UNL1        0.3605
     10 N          60.5097   89.9091    9.9624 N.pl3   1  UNL1       -0.1942
     11 H          60.0767   90.7055    9.5783 H       1  UNL1        0.2987
     12 C          60.5122   88.6164    9.2015 C.ar    1  UNL1        0.1364
     13 C          59.3648   88.2760    8.2974 C.ar    1  UNL1        0.0425
     14 C          59.3673   86.9833    7.5365 C.ar    1  UNL1        0.0336
     15 C          60.5173   86.0309    7.6798 C.ar    1  UNL1        0.1465
     16 F          60.5199   84.7382    6.9190 F       1  UNL1       -0.2036
     17 C          61.6648   86.3713    8.5840 C.ar    1  UNL1        0.0654
     18 BR         62.8148   85.4190    8.7273 Br      1  UNL1       -0.0465
     19 C          61.6623   87.6640    9.3449 C.ar    1  UNL1        0.0491
     20 N          62.8621   90.3084   14.0784 N.pl3   1  UNL1       -0.3127
     21 H          61.9791   90.5343   14.4505 H       1  UNL1        0.1484
     22 C          63.8042   89.4395   14.8577 C.3     1  UNL1        0.1074
     23 C          64.1957   88.0925   14.3264 C.3     1  UNL1        0.1137
     24 N          64.0149   86.8696   15.1760 N.3     1  UNL1       -0.1679
     25 H          64.6064   86.9920   15.9979 H       1  UNL1        0.1499
     26 N          64.6404   84.1583   14.0547 N.3     1  UNL1       -0.1934
     27 S          64.3277   85.5140   14.6154 S.O2    1  UNL1        0.0927
     28 O          62.8743   85.3056   14.3083 O.2     1  UNL1       -0.1415
     29 O          65.7810   85.7223   14.9224 O.2     1  UNL1       -0.1415
     30 H          63.7795   83.7174   13.7308 H       1  UNL1        0.1453
     31 H          65.0663   83.5806   14.7795 H       1  UNL1        0.1453
@<TRIPOS>BOND
     1    26    27    1
     2    27    28    2
     3    27    29    2
     4    27    24    1
     5    24    23    1
     6    23    22    1
     7    22    20    1
     8    20     1    1
     9     1     2   ar
    10     2     3   ar
    11     3     4   ar
    12     4     5   ar
    13     5     6    1
    14     6     7    2
    15     7     8    1
    16     6    10    1
    17    10    12    1
    18    12    13   ar
    19    13    14   ar
    20    14    15   ar
    21    15    16    1
    22    15    17   ar
    23    17    18    1
    24    17    19   ar
    25     5     1   ar
    26    19    12   ar
    27    26    30    1
    28    26    31    1
    29    24    25    1
    30    20    21    1
    31     8     9    1
    32    10    11    1
@<TRIPOS>MOLECULE
*****
 31 32 0 0 0
SMALL
GASTEIGER

@<TRIPOS>ATOM
      1 C          63.5900   89.7256   14.2268 C.ar    1  UNL1        0.1986
      2 N          64.0823   88.5594   15.0316 N.ar    1  UNL1       -0.0331
      3 O          64.0275   87.3392   14.1609 O.2     1  UNL1       -0.2400
      4 N          63.5013   87.7513   12.8180 N.ar    1  UNL1       -0.0391
      5 C          63.2309   89.2262   12.8587 C.ar    1  UNL1        0.2426
      6 C          62.6955   90.0559   11.7296 C.2     1  UNL1        0.3943
      7 N          63.6198   90.9367   10.9422 N.2     1  UNL1        0.1539
      8 O          63.0844   91.7664    9.8131 O.2     1  UNL1       -0.3110
      9 H          63.6618   92.3166    9.3212 H       1  UNL1        0.3605
     10 N          61.2359   90.0050   11.3880 N.pl3   1  UNL1       -0.1942
     11 H          60.5984   90.5851   11.8637 H       1  UNL1        0.2987
     12 C          60.7474   89.0701   10.3215 C.ar    1  UNL1        0.1364
     13 C          60.7878   87.5878   10.5475 C.ar    1  UNL1        0.0425
     14 C          60.2994   86.6529    9.4811 C.ar    1  UNL1        0.0336
     15 C          59.7705   87.2003    8.1886 C.ar    1  UNL1        0.1465
     16 F          59.2820   86.2654    7.1221 F       1  UNL1       -0.2036
     17 C          59.7300   88.6826    7.9625 C.ar    1  UNL1        0.0654
     18 BR         59.2011   89.2300    6.6700 Br      1  UNL1       -0.0465
     19 C          60.2184   89.6175    9.0290 C.ar    1  UNL1        0.0491
     20 N          63.4767   91.1425   14.7060 N.pl3   1  UNL1       -0.3127
     21 H          62.9091   91.7829   14.2191 H       1  UNL1        0.1484
     22 C          64.2280   91.5837   15.9269 C.3     1  UNL1        0.1074
     23 C          65.6355   92.0867   15.8005 C.3     1  UNL1        0.1137
     24 N          65.9401   93.2436   14.8956 N.3     1  UNL1       -0.1679
     25 H          65.0504   93.6973   14.6882 H       1  UNL1        0.1499
     26 N          67.3056   92.7723   12.2663 N.3     1  UNL1       -0.1934
     27 S          66.6228   93.0079   13.5809 S.O2    1  UNL1        0.0927
     28 O          65.2873   92.9066   12.9055 O.2     1  UNL1       -0.1415
     29 O          67.9583   93.1092   14.2563 O.2     1  UNL1       -0.1415
     30 H          66.6041   92.6539   11.5353 H       1  UNL1        0.1453
     31 H          67.8788   91.9308   12.3269 H       1  UNL1        0.1453
@<TRIPOS>BOND
     1    26    27    1
     2    27    28    2
     3    27    29    2
     4    27    24    1
     5    24    23    1
     6    23    22    1
     7    22    20    1
     8    20     1    1
     9     1     2   ar
    10     2     3   ar
    11     3     4   ar
    12     4     5   ar
    13     5     6    1
    14     6     7    2
    15     7     8    1
    16     6    10    1
    17    10    12    1
    18    12    13   ar
    19    13    14   ar
    20    14    15   ar
    21    15    16    1
    22    15    17   ar
    23    17    18    1
    24    17    19   ar
    25     5     1   ar
    26    19    12   ar
    27    26    30    1
    28    26    31    1
    29    24    25    1
    30    20    21    1
    31     8     9    1
    32    10    11    1
@<TRIPOS>MOLECULE
*****
 31 32 0 0 0
SMALL
GASTEIGER

@<TRIPOS>ATOM
      1 C          64.0783   90.7032   12.6592 C.ar    1  UNL1        0.1986
      2 N          64.9182   90.5155   13.8878 N.ar    1  UNL1       -0.0331
      3 O          64.5696   89.1862   14.4889 O.2     1  UNL1       -0.2400
      4 N          63.5142   88.5524   13.6319 N.ar    1  UNL1       -0.0391
      5 C          63.2106   89.4899   12.5011 C.ar    1  UNL1        0.2426
      6 C          62.2142   89.2554   11.4046 C.2     1  UNL1        0.3943
      7 N          62.0101   90.2942   10.3418 N.2     1  UNL1        0.1539
      8 O          61.0137   90.0596    9.2454 O.2     1  UNL1       -0.3110
      9 H          60.8862   90.7085    8.5815 H       1  UNL1        0.3605
     10 N          61.4220   87.9821   11.3708 N.pl3   1  UNL1       -0.1942
     11 H          60.4817   87.9795   11.6624 H       1  UNL1        0.2987
     12 C          62.0625   86.7128   10.8927 C.ar    1  UNL1        0.1364
     13 C          62.3670   86.5289    9.4356 C.ar    1  UNL1        0.0425
     14 C          63.0075   85.2596    8.9575 C.ar    1  UNL1        0.0336
     15 C          63.3434   84.1740    9.9366 C.ar    1  UNL1        0.1465
     16 F          63.9839   82.9047    9.4586 F       1  UNL1       -0.2036
     17 C          63.0388   84.3578   11.3939 C.ar    1  UNL1        0.0654
     18 BR         63.3747   83.2723   12.3730 Br      1  UNL1       -0.0465
     19 C          62.3984   85.6272   11.8720 C.ar    1  UNL1        0.0491
     20 N          64.1020   91.8950   11.7487 N.pl3   1  UNL1       -0.3127
     21 H          63.2592   92.3320   11.4879 H       1  UNL1        0.1484
     22 C          65.4095   92.4211   11.2356 C.3     1  UNL1        0.1074
     23 C          66.2459   93.3206   12.0967 C.3     1  UNL1        0.1137
     24 N          67.2451   92.7317   13.0479 N.3     1  UNL1       -0.1679
     25 H          67.1222   91.7197   13.0148 H       1  UNL1        0.1499
     26 N          67.2021   93.5151   15.9435 N.3     1  UNL1       -0.1934
     27 S          67.2236   93.1234   14.4957 S.O2    1  UNL1        0.0927
     28 O          68.2030   92.0304   14.8059 O.2     1  UNL1       -0.1415
     29 O          66.2443   94.2164   14.1854 O.2     1  UNL1       -0.1415
     30 H          67.8251   92.9031   16.4705 H       1  UNL1        0.1453
     31 H          66.2526   93.4269   16.3055 H       1  UNL1        0.1453
@<TRIPOS>BOND
     1    26    27    1
     2    27    28    2
     3    27    29    2
     4    27    24    1
     5    24    23    1
     6    23    22    1
     7    22    20    1
     8    20     1    1
     9     1     2   ar
    10     2     3   ar
    11     3     4   ar
    12     4     5   ar
    13     5     6    1
    14     6     7    2
    15     7     8    1
    16     6    10    1
    17    10    12    1
    18    12    13   ar
    19    13    14   ar
    20    14    15   ar
    21    15    16    1
    22    15    17   ar
    23    17    18    1
    24    17    19   ar
    25     5     1   ar
    26    19    12   ar
    27    26    30    1
    28    26    31    1
    29    24    25    1
    30    20    21    1
    31     8     9    1
    32    10    11    1
@<TRIPOS>MOLECULE
*****
 31 32 0 0 0
SMALL
GASTEIGER

@<TRIPOS>ATOM
      1 C          61.3706   87.6714   10.7093 C.ar    1  UNL1        0.1986
      2 N          60.8284   88.1175    9.3838 N.ar    1  UNL1       -0.0331
      3 O          61.1991   89.5583    9.1927 O.2     1  UNL1       -0.2400
      4 N          61.9703   90.0027   10.4000 N.ar    1  UNL1       -0.0391
      5 C          62.0764   88.8364   11.3374 C.ar    1  UNL1        0.2426
      6 C          62.7669   88.8355   12.6690 C.2     1  UNL1        0.3943
      7 N          63.5277   87.6233   13.1185 N.2     1  UNL1        0.1539
      8 O          64.2182   87.6223   14.4501 O.2     1  UNL1       -0.3110
      9 H          64.6934   86.8651   14.7308 H       1  UNL1        0.3605
     10 N          62.6968   90.0466   13.5511 N.pl3   1  UNL1       -0.1942
     11 H          61.8578   90.2692   14.0157 H       1  UNL1        0.2987
     12 C          63.9048   90.9186   13.7253 C.ar    1  UNL1        0.1364
     13 C          64.5598   91.0326   15.0699 C.ar    1  UNL1        0.0425
     14 C          65.7678   91.9046   15.2441 C.ar    1  UNL1        0.0336
     15 C          66.3208   92.6625   14.0738 C.ar    1  UNL1        0.1465
     16 F          67.5288   93.5345   14.2480 F       1  UNL1       -0.2036
     17 C          65.6658   92.5485   12.7291 C.ar    1  UNL1        0.0654
     18 BR         66.2187   93.3064   11.5588 Br      1  UNL1       -0.0465
     19 C          64.4577   91.6765   12.5549 C.ar    1  UNL1        0.0491
     20 N          61.2315   86.3007   11.3026 N.pl3   1  UNL1       -0.3127
     21 H          60.5779   86.1393   12.0209 H       1  UNL1        0.1484
     22 C          62.0881   85.1760   10.8016 C.3     1  UNL1        0.1074
     23 C          62.7674   84.2593   11.7753 C.3     1  UNL1        0.1137
     24 N          63.1177   84.7504   13.1486 N.3     1  UNL1       -0.1679
     25 H          64.1078   84.9947   13.1303 H       1  UNL1        0.1499
     26 N          62.7089   82.9695   15.5280 N.3     1  UNL1       -0.1934
     27 S          62.9133   83.8599   14.3383 S.O2    1  UNL1        0.0927
     28 O          63.2962   82.6680   13.5120 O.2     1  UNL1       -0.1415
     29 O          62.5304   85.0518   15.1646 O.2     1  UNL1       -0.1415
     30 H          62.9081   82.0035   15.2679 H       1  UNL1        0.1453
     31 H          61.7427   83.0436   15.8462 H       1  UNL1        0.1453
@<TRIPOS>BOND
     1    26    27    1
     2    27    28    2
     3    27    29    2
     4    27    24    1
     5    24    23    1
     6    23    22    1
     7    22    20    1
     8    20     1    1
     9     1     2   ar
    10     2     3   ar
    11     3     4   ar
    12     4     5   ar
    13     5     6    1
    14     6     7    2
    15     7     8    1
    16     6    10    1
    17    10    12    1
    18    12    13   ar
    19    13    14   ar
    20    14    15   ar
    21    15    16    1
    22    15    17   ar
    23    17    18    1
    24    17    19   ar
    25     5     1   ar
    26    19    12   ar
    27    26    30    1
    28    26    31    1
    29    24    25    1
    30    20    21    1
    31     8     9    1
    32    10    11    1
