@<TRIPOS>MOLECULE
*****
 30 33 0 0 0
SMALL
GASTEIGER

@<TRIPOS>ATOM
      1 C          65.7478   93.3817   11.4888 C.ar    1  UNL1        0.2200
      2 N          64.8130   92.2982   11.0393 N.ar    1  UNL1       -0.2135
      3 C          64.3383   91.2640   12.0165 C.ar    1  UNL1        0.0891
      4 C          64.7985   91.3133   13.4434 C.ar    1  UNL1        0.0357
      5 C          65.7333   92.3968   13.8930 C.ar    1  UNL1        0.0831
      6 N          66.2079   93.4311   12.9156 N.ar    1  UNL1       -0.2164
      7 C          63.4035   90.1805   11.5670 C.ar    1  UNL1        0.0645
      8 C          63.2499   88.9343   12.3875 C.ar    1  UNL1        0.1040
      9 N          62.3151   87.8507   11.9380 N.ar    1  UNL1       -0.2294
     10 C          61.5339   88.0134   10.6678 C.ar    1  UNL1        0.1277
     11 N          60.5991   86.9299   10.2183 N.pl3   1  UNL1       -0.3426
     12 C          61.6876   89.2596    9.8472 C.ar    1  UNL1        0.0635
     13 C          62.6224   90.3432   10.2967 C.ar    1  UNL1        0.1458
     14 F          62.7760   91.5893    9.4762 F       1  UNL1       -0.2040
     15 H          60.4983   86.1119   10.7569 H       1  UNL1        0.1437
     16 H          60.0864   87.0366    9.3846 H       1  UNL1        0.1437
     17 C          67.9720   92.7350    9.5823 C.3     1  UNL1        0.0242
     18 C          67.3345   94.0926    9.5583 C.3     1  UNL1        0.1052
     19 C          67.8091   95.1269    8.5811 C.3     1  UNL1        0.1619
     20 O          67.1717   96.4845    8.5570 O.3     1  UNL1       -0.3502
     21 C          66.0596   96.8078    9.5102 C.3     1  UNL1        0.1637
     22 C          65.5850   95.7736   10.4875 C.3     1  UNL1        0.1256
     23 N          66.2225   94.4160   10.5115 N.pl3   1  UNL1       -0.2748
     24 C          66.1934   92.4461   15.3198 C.3     1  UNL1        0.1456
     25 C          66.1408   92.4380   16.8188 C.3     1  UNL1        0.0297
     26 C          64.8769   92.2978   16.0233 C.3     1  UNL1        0.0297
     27 S          67.6696   92.6116   15.1118 S.O2    1  UNL1       -0.0065
     28 C          69.1460   92.7771   14.9039 C.3     1  UNL1        0.1764
     29 O          67.6178   93.9422   15.8024 O.2     1  UNL1       -0.1727
     30 O          67.7216   91.2810   14.4213 O.2     1  UNL1       -0.1727
@<TRIPOS>BOND
     1    18    17    1
     2    18    19    1
     3    19    20    1
     4    20    21    1
     5    21    22    1
     6    22    23    1
     7    23     1    1
     8     1     2   ar
     9     2     3   ar
    10     3     7    1
    11     7     8   ar
    12     8     9   ar
    13     9    10   ar
    14    10    11    1
    15    10    12   ar
    16    12    13   ar
    17    13    14    1
    18     3     4   ar
    19     4     5   ar
    20     5    24    1
    21    24    27    1
    22    27    28    1
    23    27    29    2
    24    27    30    2
    25    24    25    1
    26    25    26    1
    27     5     6   ar
    28    23    18    1
    29     6     1   ar
    30    13     7   ar
    31    26    24    1
    32    11    15    1
    33    11    16    1
@<TRIPOS>MOLECULE
*****
 30 33 0 0 0
SMALL
GASTEIGER

@<TRIPOS>ATOM
      1 C          65.3926   92.9590   11.3146 C.ar    1  UNL1        0.2200
      2 N          64.4168   91.9821   10.7287 N.ar    1  UNL1       -0.2135
      3 C          63.7226   90.9918   11.6160 C.ar    1  UNL1        0.0891
      4 C          64.0042   90.9784   13.0893 C.ar    1  UNL1        0.0357
      5 C          64.9800   91.9553   13.6752 C.ar    1  UNL1        0.0831
      6 N          65.6742   92.9457   12.7878 N.ar    1  UNL1       -0.2164
      7 C          62.7467   90.0148   11.0300 C.ar    1  UNL1        0.0645
      8 C          61.7816   90.4617    9.9724 C.ar    1  UNL1        0.1040
      9 N          60.8057   89.4847    9.3864 N.ar    1  UNL1       -0.2294
     10 C          60.7951   88.0609    9.8582 C.ar    1  UNL1        0.1277
     11 N          59.8193   87.0839    9.2723 N.pl3   1  UNL1       -0.3426
     12 C          61.7603   87.6140   10.9159 C.ar    1  UNL1        0.0635
     13 C          62.7361   88.5909   11.5018 C.ar    1  UNL1        0.1458
     14 F          63.7013   88.1441   12.5595 F       1  UNL1       -0.2040
     15 H          59.1858   87.3772    8.5781 H       1  UNL1        0.1437
     16 H          59.8123   86.1494    9.5819 H       1  UNL1        0.1437
     17 C          67.8944   92.1722    9.8579 C.3     1  UNL1        0.0242
     18 C          67.3377   93.5559    9.6989 C.3     1  UNL1        0.1052
     19 C          68.0318   94.5463    8.8116 C.3     1  UNL1        0.1619
     20 O          67.4751   95.9300    8.6525 O.3     1  UNL1       -0.3502
     21 C          66.2242   96.3234    9.3808 C.3     1  UNL1        0.1637
     22 C          65.5300   95.3331   10.2682 C.3     1  UNL1        0.1256
     23 N          66.0868   93.9494   10.4272 N.pl3   1  UNL1       -0.2748
     24 C          65.2617   91.9420   15.1484 C.3     1  UNL1        0.1456
     25 C          65.8808   92.2947   16.4684 C.3     1  UNL1        0.0297
     26 C          66.3312   92.9914   15.2187 C.3     1  UNL1        0.0297
     27 S          64.2901   90.8880   15.5899 S.O2    1  UNL1       -0.0065
     28 C          63.3183   89.8339   16.0314 C.3     1  UNL1        0.1764
     29 O          63.4642   91.9361   16.2750 O.2     1  UNL1       -0.1727
     30 O          65.1158   89.8397   14.9047 O.2     1  UNL1       -0.1727
@<TRIPOS>BOND
     1    18    17    1
     2    18    19    1
     3    19    20    1
     4    20    21    1
     5    21    22    1
     6    22    23    1
     7    23     1    1
     8     1     2   ar
     9     2     3   ar
    10     3     7    1
    11     7     8   ar
    12     8     9   ar
    13     9    10   ar
    14    10    11    1
    15    10    12   ar
    16    12    13   ar
    17    13    14    1
    18     3     4   ar
    19     4     5   ar
    20     5    24    1
    21    24    27    1
    22    27    28    1
    23    27    29    2
    24    27    30    2
    25    24    25    1
    26    25    26    1
    27     5     6   ar
    28    23    18    1
    29     6     1   ar
    30    13     7   ar
    31    26    24    1
    32    11    15    1
    33    11    16    1
@<TRIPOS>MOLECULE
*****
 30 33 0 0 0
SMALL
GASTEIGER

@<TRIPOS>ATOM
      1 C          63.0518   86.6367   12.6881 C.ar    1  UNL1        0.2200
      2 N          63.8324   87.8025   13.2189 N.ar    1  UNL1       -0.2135
      3 C          63.5235   89.1910   12.7431 C.ar    1  UNL1        0.0891
      4 C          62.4341   89.4139   11.7363 C.ar    1  UNL1        0.0357
      5 C          61.6535   88.2481   11.2054 C.ar    1  UNL1        0.0831
      6 N          61.9624   86.8595   11.6814 N.ar    1  UNL1       -0.2164
      7 C          64.3041   90.3568   13.2739 C.ar    1  UNL1        0.0645
      8 C          64.7122   91.4680   12.3527 C.ar    1  UNL1        0.1040
      9 N          65.4928   92.6337   12.8836 N.ar    1  UNL1       -0.2294
     10 C          65.8652   92.6883   14.3355 C.ar    1  UNL1        0.1277
     11 N          66.6457   93.8540   14.8664 N.pl3   1  UNL1       -0.3426
     12 C          65.4570   91.5770   15.2568 C.ar    1  UNL1        0.0635
     13 C          64.6765   90.4113   14.7260 C.ar    1  UNL1        0.1458
     14 F          64.2683   89.3001   15.6471 F       1  UNL1       -0.2040
     15 H          66.9136   94.5833   14.2618 H       1  UNL1        0.1437
     16 H          66.8901   93.8898   15.8194 H       1  UNL1        0.1437
     17 C          63.1375   84.3646   10.7311 C.3     1  UNL1        0.0242
     18 C          63.4036   84.1121   12.1855 C.3     1  UNL1        0.1052
     19 C          63.7124   82.7236   12.6615 C.3     1  UNL1        0.1619
     20 O          63.9785   82.4711   14.1160 O.3     1  UNL1       -0.3502
     21 C          63.9356   83.6072   15.0945 C.3     1  UNL1        0.1637
     22 C          63.6268   84.9957   14.6185 C.3     1  UNL1        0.1256
     23 N          63.3607   85.2481   13.1640 N.pl3   1  UNL1       -0.2748
     24 C          60.5641   88.4709   10.1987 C.3     1  UNL1        0.1456
     25 C          59.7401   88.3130    8.9554 C.3     1  UNL1        0.0297
     26 C          60.9499   87.4520    9.1677 C.3     1  UNL1        0.0297
     27 S          59.8001   89.5672   10.8800 S.O2    1  UNL1       -0.0065
     28 C          59.0359   90.6637   11.5614 C.3     1  UNL1        0.1764
     29 O          60.1551   90.5070    9.7661 O.2     1  UNL1       -0.1727
     30 O          59.4450   88.6276   11.9940 O.2     1  UNL1       -0.1727
@<TRIPOS>BOND
     1    18    17    1
     2    18    19    1
     3    19    20    1
     4    20    21    1
     5    21    22    1
     6    22    23    1
     7    23     1    1
     8     1     2   ar
     9     2     3   ar
    10     3     7    1
    11     7     8   ar
    12     8     9   ar
    13     9    10   ar
    14    10    11    1
    15    10    12   ar
    16    12    13   ar
    17    13    14    1
    18     3     4   ar
    19     4     5   ar
    20     5    24    1
    21    24    27    1
    22    27    28    1
    23    27    29    2
    24    27    30    2
    25    24    25    1
    26    25    26    1
    27     5     6   ar
    28    23    18    1
    29     6     1   ar
    30    13     7   ar
    31    26    24    1
    32    11    15    1
    33    11    16    1
@<TRIPOS>MOLECULE
*****
 30 33 0 0 0
SMALL
GASTEIGER

@<TRIPOS>ATOM
      1 C          65.6768   93.3207   11.4212 C.ar    1  UNL1        0.2200
      2 N          64.6732   92.3037   10.9646 N.ar    1  UNL1       -0.2135
      3 C          64.1225   91.3040   11.9379 C.ar    1  UNL1        0.0891
      4 C          64.5753   91.3213   13.3678 C.ar    1  UNL1        0.0357
      5 C          65.5789   92.3383   13.8244 C.ar    1  UNL1        0.0831
      6 N          66.1297   93.3380   12.8511 N.ar    1  UNL1       -0.2164
      7 C          63.1189   90.2870   11.4813 C.ar    1  UNL1        0.0645
      8 C          62.1199   90.6428   10.4205 C.ar    1  UNL1        0.1040
      9 N          61.1163   89.6258    9.9639 N.ar    1  UNL1       -0.2294
     10 C          61.1118   88.2529   10.5680 C.ar    1  UNL1        0.1277
     11 N          60.1082   87.2359   10.1114 N.pl3   1  UNL1       -0.3426
     12 C          62.1108   87.8970   11.6289 C.ar    1  UNL1        0.0635
     13 C          63.1144   88.9140   12.0855 C.ar    1  UNL1        0.1458
     14 F          64.1134   88.5581   13.1463 F       1  UNL1       -0.2040
     15 H          59.4525   87.4695    9.4152 H       1  UNL1        0.1437
     16 H          60.1052   86.3348   10.5080 H       1  UNL1        0.1437
     17 C          67.9360   92.5554    9.6017 C.3     1  UNL1        0.0242
     18 C          67.3571   93.9377    9.5381 C.3     1  UNL1        0.1052
     19 C          67.9078   94.9374    8.5648 C.3     1  UNL1        0.1619
     20 O          67.3289   96.3198    8.5013 O.3     1  UNL1       -0.3502
     21 C          66.1994   96.7024    9.4110 C.3     1  UNL1        0.1637
     22 C          65.6487   95.7027   10.3843 C.3     1  UNL1        0.1256
     23 N          66.2276   94.3204   10.4479 N.pl3   1  UNL1       -0.2748
     24 C          66.0318   92.3557   15.2543 C.3     1  UNL1        0.1456
     25 C          65.9720   92.3099   16.7524 C.3     1  UNL1        0.0297
     26 C          64.7130   92.1799   15.9473 C.3     1  UNL1        0.0297
     27 S          67.5077   92.5374   15.0580 S.O2    1  UNL1       -0.0065
     28 C          68.9837   92.7191   14.8616 C.3     1  UNL1        0.1764
     29 O          67.5761   91.2169   14.3497 O.2     1  UNL1       -0.1727
     30 O          67.4394   93.8579   15.7662 O.2     1  UNL1       -0.1727
@<TRIPOS>BOND
     1    18    17    1
     2    18    19    1
     3    19    20    1
     4    20    21    1
     5    21    22    1
     6    22    23    1
     7    23     1    1
     8     1     2   ar
     9     2     3   ar
    10     3     7    1
    11     7     8   ar
    12     8     9   ar
    13     9    10   ar
    14    10    11    1
    15    10    12   ar
    16    12    13   ar
    17    13    14    1
    18     3     4   ar
    19     4     5   ar
    20     5    24    1
    21    24    27    1
    22    27    28    1
    23    27    29    2
    24    27    30    2
    25    24    25    1
    26    25    26    1
    27     5     6   ar
    28    23    18    1
    29     6     1   ar
    30    13     7   ar
    31    26    24    1
    32    11    15    1
    33    11    16    1
@<TRIPOS>MOLECULE
*****
 30 33 0 0 0
SMALL
GASTEIGER

@<TRIPOS>ATOM
      1 C          63.6583   88.8717   13.3503 C.ar    1  UNL1        0.2200
      2 N          62.7875   89.0783   12.1466 N.ar    1  UNL1       -0.2135
      3 C          62.2303   87.8952   11.4120 C.ar    1  UNL1        0.0891
      4 C          62.5440   86.5053   11.8811 C.ar    1  UNL1        0.0357
      5 C          63.4149   86.2987   13.0849 C.ar    1  UNL1        0.0831
      6 N          63.9720   87.4820   13.8195 N.ar    1  UNL1       -0.2164
      7 C          61.3595   88.1017   10.2083 C.ar    1  UNL1        0.0645
      8 C          61.1033   89.4884    9.6970 C.ar    1  UNL1        0.1040
      9 N          60.2324   89.6950    8.4933 N.ar    1  UNL1       -0.2294
     10 C          59.6178   88.5149    7.8009 C.ar    1  UNL1        0.1277
     11 N          58.7469   88.7215    6.5971 N.pl3   1  UNL1       -0.3426
     12 C          59.8740   87.1281    8.3121 C.ar    1  UNL1        0.0635
     13 C          60.7448   86.9215    9.5158 C.ar    1  UNL1        0.1458
     14 F          61.0010   85.5349   10.0271 F       1  UNL1       -0.2040
     15 H          58.5788   89.6316    6.2616 H       1  UNL1        0.1437
     16 H          58.3435   87.9469    6.1426 H       1  UNL1        0.1437
     17 C          62.8855   89.3637   16.2071 C.3     1  UNL1        0.0242
     18 C          63.8291   90.3010   15.5133 C.3     1  UNL1        0.1052
     19 C          64.3862   91.4842   16.2478 C.3     1  UNL1        0.1619
     20 O          65.3297   92.4214   15.5540 O.3     1  UNL1       -0.3502
     21 C          65.7161   92.1754   14.1257 C.3     1  UNL1        0.1637
     22 C          65.1590   90.9922   13.3911 C.3     1  UNL1        0.1256
     23 N          64.2154   90.0550   14.0849 N.pl3   1  UNL1       -0.2748
     24 C          63.7286   84.9090   13.5540 C.3     1  UNL1        0.1456
     25 C          64.0293   83.4401   13.5084 C.3     1  UNL1        0.0297
     26 C          63.8002   84.1987   12.2347 C.3     1  UNL1        0.0297
     27 S          63.7659   85.1366   15.0361 S.O2    1  UNL1       -0.0065
     28 C          63.8032   85.3642   16.5184 C.3     1  UNL1        0.1764
     29 O          62.2718   85.0164   15.0922 O.2     1  UNL1       -0.1727
     30 O          65.2600   85.2567   14.9801 O.2     1  UNL1       -0.1727
@<TRIPOS>BOND
     1    18    17    1
     2    18    19    1
     3    19    20    1
     4    20    21    1
     5    21    22    1
     6    22    23    1
     7    23     1    1
     8     1     2   ar
     9     2     3   ar
    10     3     7    1
    11     7     8   ar
    12     8     9   ar
    13     9    10   ar
    14    10    11    1
    15    10    12   ar
    16    12    13   ar
    17    13    14    1
    18     3     4   ar
    19     4     5   ar
    20     5    24    1
    21    24    27    1
    22    27    28    1
    23    27    29    2
    24    27    30    2
    25    24    25    1
    26    25    26    1
    27     5     6   ar
    28    23    18    1
    29     6     1   ar
    30    13     7   ar
    31    26    24    1
    32    11    15    1
    33    11    16    1
@<TRIPOS>MOLECULE
*****
 30 33 0 0 0
SMALL
GASTEIGER

@<TRIPOS>ATOM
      1 C          63.4630   89.0964   13.0599 C.ar    1  UNL1        0.2200
      2 N          63.7487   87.6711   13.4301 N.ar    1  UNL1       -0.2135
      3 C          63.0404   86.5555   12.7205 C.ar    1  UNL1        0.0891
      4 C          62.0462   86.8650   11.6407 C.ar    1  UNL1        0.0357
      5 C          61.7605   88.2902   11.2705 C.ar    1  UNL1        0.0831
      6 N          62.4689   89.4059   11.9801 N.ar    1  UNL1       -0.2164
      7 C          63.3261   85.1302   13.0908 C.ar    1  UNL1        0.0645
      8 C          63.5065   84.7511   14.5308 C.ar    1  UNL1        0.1040
      9 N          63.7922   83.3259   14.9010 N.ar    1  UNL1       -0.2294
     10 C          63.8976   82.2798   13.8312 C.ar    1  UNL1        0.1277
     11 N          64.1833   80.8545   14.2014 N.pl3   1  UNL1       -0.3426
     12 C          63.7173   82.6589   12.3911 C.ar    1  UNL1        0.0635
     13 C          63.4315   84.0841   12.0209 C.ar    1  UNL1        0.1458
     14 F          63.2512   84.4632   10.5809 F       1  UNL1       -0.2040
     15 H          64.3017   80.6057   15.1466 H       1  UNL1        0.1437
     16 H          64.2525   80.1679   13.4993 H       1  UNL1        0.1437
     17 C          63.0848   89.4759   16.0116 C.3     1  UNL1        0.0242
     18 C          63.9823   90.4018   15.2453 C.3     1  UNL1        0.1052
     19 C          64.6907   91.5175   15.9548 C.3     1  UNL1        0.1619
     20 O          65.5881   92.4433   15.1885 O.3     1  UNL1       -0.3502
     21 C          65.7772   92.2536   13.7127 C.3     1  UNL1        0.1637
     22 C          65.0689   91.1379   13.0031 C.3     1  UNL1        0.1256
     23 N          64.1714   90.2121   13.7695 N.pl3   1  UNL1       -0.2748
     24 C          60.7664   88.5998   10.1907 C.3     1  UNL1        0.1456
     25 C          60.0611   88.5504    8.8678 C.3     1  UNL1        0.0297
     26 C          61.2528   87.6737    9.1156 C.3     1  UNL1        0.0297
     27 S          59.9348   89.6333   10.8908 S.O2    1  UNL1       -0.0065
     28 C          59.1031   90.6670   11.5909 C.3     1  UNL1        0.1764
     29 O          60.3951   90.6692    9.9083 O.2     1  UNL1       -0.1727
     30 O          59.4745   88.5976   11.8733 O.2     1  UNL1       -0.1727
@<TRIPOS>BOND
     1    18    17    1
     2    18    19    1
     3    19    20    1
     4    20    21    1
     5    21    22    1
     6    22    23    1
     7    23     1    1
     8     1     2   ar
     9     2     3   ar
    10     3     7    1
    11     7     8   ar
    12     8     9   ar
    13     9    10   ar
    14    10    11    1
    15    10    12   ar
    16    12    13   ar
    17    13    14    1
    18     3     4   ar
    19     4     5   ar
    20     5    24    1
    21    24    27    1
    22    27    28    1
    23    27    29    2
    24    27    30    2
    25    24    25    1
    26    25    26    1
    27     5     6   ar
    28    23    18    1
    29     6     1   ar
    30    13     7   ar
    31    26    24    1
    32    11    15    1
    33    11    16    1
@<TRIPOS>MOLECULE
*****
 30 33 0 0 0
SMALL
GASTEIGER

@<TRIPOS>ATOM
      1 C          63.1485   88.3967   12.3951 C.ar    1  UNL1        0.2200
      2 N          63.4348   87.0109   12.8927 N.ar    1  UNL1       -0.2135
      3 C          62.7191   85.8363   12.2942 C.ar    1  UNL1        0.0891
      4 C          61.7171   86.0476   11.1981 C.ar    1  UNL1        0.0357
      5 C          61.4308   87.4334   10.7005 C.ar    1  UNL1        0.0831
      6 N          62.1466   88.6080   11.2990 N.ar    1  UNL1       -0.2164
      7 C          63.0053   84.4505   12.7918 C.ar    1  UNL1        0.0645
      8 C          62.6865   84.0823   14.2105 C.ar    1  UNL1        0.1040
      9 N          62.9728   82.6965   14.7081 N.ar    1  UNL1       -0.2294
     10 C          63.5778   81.6789   13.7870 C.ar    1  UNL1        0.1277
     11 N          63.8641   80.2931   14.2846 N.pl3   1  UNL1       -0.3426
     12 C          63.8967   82.0472   12.3682 C.ar    1  UNL1        0.0635
     13 C          63.6104   83.4330   11.8706 C.ar    1  UNL1        0.1458
     14 F          63.9292   83.8012   10.4519 F       1  UNL1       -0.2040
     15 H          63.6548   80.0514   15.2158 H       1  UNL1        0.1437
     16 H          64.2612   79.6253   13.6800 H       1  UNL1        0.1437
     17 C          63.4086   90.9476   10.8377 C.3     1  UNL1        0.0242
     18 C          63.9943   90.8466   12.2149 C.3     1  UNL1        0.1052
     19 C          64.7100   92.0211   12.8135 C.3     1  UNL1        0.1619
     20 O          65.2957   91.9202   14.1907 O.3     1  UNL1       -0.3502
     21 C          65.1656   90.6448   14.9694 C.3     1  UNL1        0.1637
     22 C          64.4499   89.4703   14.3709 C.3     1  UNL1        0.1256
     23 N          63.8642   89.5712   12.9936 N.pl3   1  UNL1       -0.2748
     24 C          60.4289   87.6447    9.6044 C.3     1  UNL1        0.1456
     25 C          59.5792   87.3699    8.3992 C.3     1  UNL1        0.0297
     26 C          60.5195   86.3184    8.9095 C.3     1  UNL1        0.0297
     27 S          59.9903   89.0442    9.9186 S.O2    1  UNL1       -0.0065
     28 C          59.5517   90.4439   10.2329 C.3     1  UNL1        0.1764
     29 O          59.4182   88.5723   11.2225 O.2     1  UNL1       -0.1727
     30 O          60.5623   89.5163    8.6148 O.2     1  UNL1       -0.1727
@<TRIPOS>BOND
     1    18    17    1
     2    18    19    1
     3    19    20    1
     4    20    21    1
     5    21    22    1
     6    22    23    1
     7    23     1    1
     8     1     2   ar
     9     2     3   ar
    10     3     7    1
    11     7     8   ar
    12     8     9   ar
    13     9    10   ar
    14    10    11    1
    15    10    12   ar
    16    12    13   ar
    17    13    14    1
    18     3     4   ar
    19     4     5   ar
    20     5    24    1
    21    24    27    1
    22    27    28    1
    23    27    29    2
    24    27    30    2
    25    24    25    1
    26    25    26    1
    27     5     6   ar
    28    23    18    1
    29     6     1   ar
    30    13     7   ar
    31    26    24    1
    32    11    15    1
    33    11    16    1
@<TRIPOS>MOLECULE
*****
 30 33 0 0 0
SMALL
GASTEIGER

@<TRIPOS>ATOM
      1 C          63.0303   88.4857   12.1280 C.ar    1  UNL1        0.2200
      2 N          63.2023   87.0984   12.6717 N.ar    1  UNL1       -0.2135
      3 C          62.5166   85.9418   12.0068 C.ar    1  UNL1        0.0891
      4 C          61.6589   86.1726   10.7980 C.ar    1  UNL1        0.0357
      5 C          61.4868   87.5599   10.2542 C.ar    1  UNL1        0.0831
      6 N          62.1726   88.7165   10.9192 N.ar    1  UNL1       -0.2164
      7 C          62.6886   84.5545   12.5505 C.ar    1  UNL1        0.0645
      8 C          62.4134   84.2770   13.9987 C.ar    1  UNL1        0.1040
      9 N          62.5854   82.8897   14.5424 N.ar    1  UNL1       -0.2294
     10 C          63.0327   81.7798   13.6381 C.ar    1  UNL1        0.1277
     11 N          63.2047   80.3924   14.1818 N.pl3   1  UNL1       -0.3426
     12 C          63.3080   82.0572   12.1898 C.ar    1  UNL1        0.0635
     13 C          63.1360   83.4445   11.6461 C.ar    1  UNL1        0.1458
     14 F          63.4113   83.7220   10.1979 F       1  UNL1       -0.2040
     15 H          63.0240   80.2104   15.1323 H       1  UNL1        0.1437
     16 H          63.4983   79.6640   13.5882 H       1  UNL1        0.1437
     17 C          63.4543   91.0456   10.6223 C.3     1  UNL1        0.0242
     18 C          63.9280   90.9222   12.0401 C.3     1  UNL1        0.1052
     19 C          64.6137   92.0787   12.7051 C.3     1  UNL1        0.1619
     20 O          65.0874   91.9553   14.1230 O.3     1  UNL1       -0.3502
     21 C          64.8754   90.6754   14.8759 C.3     1  UNL1        0.1637
     22 C          64.1897   89.5189   14.2108 C.3     1  UNL1        0.1256
     23 N          63.7160   89.6423   12.7930 N.pl3   1  UNL1       -0.2748
     24 C          60.6291   87.7907    9.0455 C.3     1  UNL1        0.1456
     25 C          59.6762   88.4606    8.1005 C.3     1  UNL1        0.0297
     26 C          60.0570   89.1352    9.3850 C.3     1  UNL1        0.0297
     27 S          60.9034   86.5265    8.2862 S.O2    1  UNL1       -0.0065
     28 C          61.1776   85.2622    7.5269 C.3     1  UNL1        0.1764
     29 O          59.4305   86.3313    8.0793 O.2     1  UNL1       -0.1727
     30 O          62.3761   86.7217    8.4931 O.2     1  UNL1       -0.1727
@<TRIPOS>BOND
     1    18    17    1
     2    18    19    1
     3    19    20    1
     4    20    21    1
     5    21    22    1
     6    22    23    1
     7    23     1    1
     8     1     2   ar
     9     2     3   ar
    10     3     7    1
    11     7     8   ar
    12     8     9   ar
    13     9    10   ar
    14    10    11    1
    15    10    12   ar
    16    12    13   ar
    17    13    14    1
    18     3     4   ar
    19     4     5   ar
    20     5    24    1
    21    24    27    1
    22    27    28    1
    23    27    29    2
    24    27    30    2
    25    24    25    1
    26    25    26    1
    27     5     6   ar
    28    23    18    1
    29     6     1   ar
    30    13     7   ar
    31    26    24    1
    32    11    15    1
    33    11    16    1
@<TRIPOS>MOLECULE
*****
 30 33 0 0 0
SMALL
GASTEIGER

@<TRIPOS>ATOM
      1 C          63.5818   90.9273   11.6791 C.ar    1  UNL1        0.2200
      2 N          64.2749   91.9115   10.7842 N.ar    1  UNL1       -0.2135
      3 C          65.2744   92.8719   11.3575 C.ar    1  UNL1        0.0891
      4 C          65.5808   92.8480   12.8258 C.ar    1  UNL1        0.0357
      5 C          64.8877   91.8638   13.7206 C.ar    1  UNL1        0.0831
      6 N          63.8881   90.9034   13.1473 N.ar    1  UNL1       -0.2164
      7 C          65.9676   93.8561   10.4626 C.ar    1  UNL1        0.0645
      8 C          65.4736   95.2699   10.3778 C.ar    1  UNL1        0.1040
      9 N          66.1668   96.2541    9.4829 N.ar    1  UNL1       -0.2294
     10 C          67.3539   95.8246    8.6729 C.ar    1  UNL1        0.1277
     11 N          68.0471   96.8088    7.7780 N.pl3   1  UNL1       -0.3426
     12 C          67.8480   94.4108    8.7577 C.ar    1  UNL1        0.0635
     13 C          67.1548   93.4265    9.6526 C.ar    1  UNL1        0.1458
     14 F          67.6488   92.0128    9.7375 F       1  UNL1       -0.2040
     15 H          67.7228   97.7367    7.7223 H       1  UNL1        0.1437
     16 H          68.8262   96.5269    7.2463 H       1  UNL1        0.1437
     17 C          63.4785   88.0985   12.6729 C.3     1  UNL1        0.0242
     18 C          62.5306   88.5526   11.6026 C.3     1  UNL1        0.1052
     19 C          61.5311   87.5923   11.0293 C.3     1  UNL1        0.1619
     20 O          60.5832   88.0463    9.9591 O.3     1  UNL1       -0.3502
     21 C          60.6348   89.4607    9.4622 C.3     1  UNL1        0.1637
     22 C          61.6344   90.4210   10.0356 C.3     1  UNL1        0.1256
     23 N          62.5822   89.9669   11.1058 N.pl3   1  UNL1       -0.2748
     24 C          65.1940   91.8399   15.1888 C.3     1  UNL1        0.1456
     25 C          65.8360   92.1824   16.5005 C.3     1  UNL1        0.0297
     26 C          66.2670   92.8865   15.2480 C.3     1  UNL1        0.0297
     27 S          64.2275   90.7851   15.6394 S.O2    1  UNL1       -0.0065
     28 C          63.2609   89.7302   16.0901 C.3     1  UNL1        0.1764
     29 O          65.0767   89.7309   14.9933 O.2     1  UNL1       -0.1727
     30 O          63.3782   91.8392   16.2856 O.2     1  UNL1       -0.1727
@<TRIPOS>BOND
     1    18    17    1
     2    18    19    1
     3    19    20    1
     4    20    21    1
     5    21    22    1
     6    22    23    1
     7    23     1    1
     8     1     2   ar
     9     2     3   ar
    10     3     7    1
    11     7     8   ar
    12     8     9   ar
    13     9    10   ar
    14    10    11    1
    15    10    12   ar
    16    12    13   ar
    17    13    14    1
    18     3     4   ar
    19     4     5   ar
    20     5    24    1
    21    24    27    1
    22    27    28    1
    23    27    29    2
    24    27    30    2
    25    24    25    1
    26    25    26    1
    27     5     6   ar
    28    23    18    1
    29     6     1   ar
    30    13     7   ar
    31    26    24    1
    32    11    15    1
    33    11    16    1
