@<TRIPOS>MOLECULE
*****
 24 27 0 0 0
SMALL
GASTEIGER

@<TRIPOS>ATOM
      1 C          62.8650   85.2370   16.1567 C.ar    1  UNL1        0.1917
      2 N          62.1433   85.3562   17.4662 N.ar    1  UNL1       -0.1268
      3 N          62.1686   86.7979   17.8797 N.ar    1  UNL1       -0.1315
      4 C          62.9060   87.5696   16.8258 C.ar    1  UNL1        0.1636
      5 N          63.3364   86.6049   15.7609 N.ar    1  UNL1       -0.2939
      6 C          64.1019   87.0966   14.5684 C.3     1  UNL1        0.1302
      7 C          64.4370   88.5531   14.4408 C.3     1  UNL1        0.1186
      8 N          64.0066   89.5178   15.5057 N.am    1  UNL1       -0.2670
      9 C          64.3418   90.9744   15.3781 C.2     1  UNL1        0.2494
     10 O          63.9114   91.9391   16.4430 O.2     1  UNL1       -0.2699
     11 C          63.2411   89.0261   16.6982 C.3     1  UNL1        0.1599
     12 C          65.1073   91.4661   14.1856 C.ar    1  UNL1        0.0537
     13 C          66.5864   91.6945   14.2859 C.ar    1  UNL1        0.0068
     14 C          67.3519   92.1862   13.0933 C.ar    1  UNL1        0.0298
     15 C          66.6383   92.4497   11.8005 C.ar    1  UNL1        0.1401
     16 F          67.4038   92.9414   10.6080 F       1  UNL1       -0.2042
     17 C          65.1592   92.2214   11.7002 C.ar    1  UNL1        0.0298
     18 C          64.3937   91.7296   12.8927 C.ar    1  UNL1        0.0068
     19 C          61.9670   80.7428   13.5343 C.3     1  UNL1        0.0744
     20 C          62.6652   81.9062   14.1740 C.ar    1  UNL1        0.1481
     21 N          64.1461   82.1440   14.1924 N.ar    1  UNL1       -0.1929
     22 S          64.4011   83.4208   14.9374 S.2     1  UNL1        0.0369
     23 C          63.0780   83.9719   15.3794 C.ar    1  UNL1        0.1652
     24 N          62.0051   83.0358   14.9076 N.ar    1  UNL1       -0.2190
@<TRIPOS>BOND
     1    19    20    1
     2    20    21   ar
     3    21    22   ar
     4    22    23   ar
     5    23     1    1
     6     1     2   ar
     7     2     3   ar
     8     3     4   ar
     9     4     5   ar
    10     5     6    1
    11     6     7    1
    12     7     8    1
    13     8     9   am
    14     9    10    2
    15     9    12    1
    16    12    13   ar
    17    13    14   ar
    18    14    15   ar
    19    15    16    1
    20    15    17   ar
    21    17    18   ar
    22     8    11    1
    23    23    24   ar
    24    24    20   ar
    25     5     1   ar
    26    18    12   ar
    27    11     4    1
@<TRIPOS>MOLECULE
*****
 24 27 0 0 0
SMALL
GASTEIGER

@<TRIPOS>ATOM
      1 C          61.9152   89.3350   11.5408 C.ar    1  UNL1        0.1917
      2 N          61.8597   88.8784   12.9686 N.ar    1  UNL1       -0.1268
      3 N          62.8478   89.6896   13.7533 N.ar    1  UNL1       -0.1315
      4 C          63.5139   90.6474   12.8105 C.ar    1  UNL1        0.1636
      5 N          62.9375   90.4282   11.4431 N.ar    1  UNL1       -0.2939
      6 C          63.4181   91.2525   10.2857 C.3     1  UNL1        0.1302
      7 C          64.4750   92.2959   10.4957 C.3     1  UNL1        0.1186
      8 N          65.0514   92.5150   11.8631 N.am    1  UNL1       -0.2670
      9 C          66.1084   93.5585   12.0730 C.2     1  UNL1        0.2494
     10 O          66.6848   93.7777   13.4404 O.2     1  UNL1       -0.2699
     11 C          64.5709   91.6908   13.0205 C.3     1  UNL1        0.1599
     12 C          66.5890   94.3828   10.9156 C.ar    1  UNL1        0.0537
     13 C          67.4117   93.7485    9.8335 C.ar    1  UNL1        0.0068
     14 C          67.8922   94.5729    8.6761 C.ar    1  UNL1        0.0298
     15 C          67.5501   96.0313    8.6007 C.ar    1  UNL1        0.1401
     16 F          68.0306   96.8556    7.4433 F       1  UNL1       -0.2042
     17 C          66.7274   96.6656    9.6828 C.ar    1  UNL1        0.0298
     18 C          66.2468   95.8413   10.8402 C.ar    1  UNL1        0.0068
     19 C          59.2041   88.9808    7.0235 C.3     1  UNL1        0.0744
     20 C          59.8466   88.6305    8.3330 C.ar    1  UNL1        0.1481
     21 N          59.8075   87.2892    9.0034 N.ar    1  UNL1       -0.1929
     22 S          60.5776   87.3899   10.2867 S.2     1  UNL1        0.0369
     23 C          61.0927   88.7933   10.4094 C.ar    1  UNL1        0.1652
     24 N          60.6409   89.5601    9.2019 N.ar    1  UNL1       -0.2190
@<TRIPOS>BOND
     1    19    20    1
     2    20    21   ar
     3    21    22   ar
     4    22    23   ar
     5    23     1    1
     6     1     2   ar
     7     2     3   ar
     8     3     4   ar
     9     4     5   ar
    10     5     6    1
    11     6     7    1
    12     7     8    1
    13     8     9   am
    14     9    10    2
    15     9    12    1
    16    12    13   ar
    17    13    14   ar
    18    14    15   ar
    19    15    16    1
    20    15    17   ar
    21    17    18   ar
    22     8    11    1
    23    23    24   ar
    24    24    20   ar
    25     5     1   ar
    26    18    12   ar
    27    11     4    1
@<TRIPOS>MOLECULE
*****
 24 27 0 0 0
SMALL
GASTEIGER

@<TRIPOS>ATOM
      1 C          66.0477   93.4649   12.2081 C.ar    1  UNL1        0.1917
      2 N          66.5991   93.2622   13.5883 N.ar    1  UNL1       -0.1268
      3 N          66.0176   91.9935   14.1380 N.ar    1  UNL1       -0.1315
      4 C          65.1069   91.4120   13.0975 C.ar    1  UNL1        0.1636
      5 N          65.1255   92.3215   11.9048 N.ar    1  UNL1       -0.2939
      6 C          64.3003   91.9909   10.6966 C.3     1  UNL1        0.1302
      7 C          63.4565   90.7509   10.6811 C.3     1  UNL1        0.1186
      8 N          63.4379   89.8414   11.8738 N.am    1  UNL1       -0.2670
      9 C          62.5941   88.6013   11.8583 C.2     1  UNL1        0.2494
     10 O          62.5754   87.6919   13.0510 O.2     1  UNL1       -0.2699
     11 C          64.2631   90.1720   13.0820 C.3     1  UNL1        0.1599
     12 C          61.7689   88.2708   10.6502 C.ar    1  UNL1        0.0537
     13 C          61.8873   86.9205   10.0076 C.ar    1  UNL1        0.0068
     14 C          61.0620   86.5900    8.7993 C.ar    1  UNL1        0.0298
     15 C          60.1184   87.6096    8.2337 C.ar    1  UNL1        0.1401
     16 F          59.2933   87.2790    7.0255 F       1  UNL1       -0.2042
     17 C          60.0000   88.9598    8.8763 C.ar    1  UNL1        0.0298
     18 C          60.8252   89.2904   10.0845 C.ar    1  UNL1        0.0068
     19 C          67.6307   96.2480    8.0094 C.3     1  UNL1        0.0744
     20 C          67.0908   95.8893    9.3621 C.ar    1  UNL1        0.1481
     21 N          66.6066   96.8552   10.4027 N.ar    1  UNL1       -0.1929
     22 S          66.1569   96.0645   11.5954 S.2     1  UNL1        0.0369
     23 C          66.3632   94.6101   11.2921 C.ar    1  UNL1        0.1652
     24 N          66.9404   94.5018    9.9118 N.ar    1  UNL1       -0.2190
@<TRIPOS>BOND
     1    19    20    1
     2    20    21   ar
     3    21    22   ar
     4    22    23   ar
     5    23     1    1
     6     1     2   ar
     7     2     3   ar
     8     3     4   ar
     9     4     5   ar
    10     5     6    1
    11     6     7    1
    12     7     8    1
    13     8     9   am
    14     9    10    2
    15     9    12    1
    16    12    13   ar
    17    13    14   ar
    18    14    15   ar
    19    15    16    1
    20    15    17   ar
    21    17    18   ar
    22     8    11    1
    23    23    24   ar
    24    24    20   ar
    25     5     1   ar
    26    18    12   ar
    27    11     4    1
@<TRIPOS>MOLECULE
*****
 24 27 0 0 0
SMALL
GASTEIGER

@<TRIPOS>ATOM
      1 C          61.3413   89.0216    9.8572 C.ar    1  UNL1        0.1917
      2 N          62.0207   90.2553   10.3734 N.ar    1  UNL1       -0.1268
      3 N          62.8940   89.8558   11.5256 N.ar    1  UNL1       -0.1315
      4 C          62.7544   88.3753   11.7216 C.ar    1  UNL1        0.1636
      5 N          61.7948   87.8596   10.6905 N.ar    1  UNL1       -0.2939
      6 C          61.4579   86.3987   10.6435 C.3     1  UNL1        0.1302
      7 C          62.0807   85.4535   11.6277 C.3     1  UNL1        0.1186
      8 N          63.0403   85.9691   12.6588 N.am    1  UNL1       -0.2670
      9 C          63.6630   85.0237   13.6430 C.2     1  UNL1        0.2494
     10 O          64.6226   85.5394   14.6742 O.2     1  UNL1       -0.2699
     11 C          63.3772   87.4300   12.7058 C.3     1  UNL1        0.1599
     12 C          63.3261   83.5629   13.5960 C.ar    1  UNL1        0.0537
     13 C          62.2178   83.0209   14.4492 C.ar    1  UNL1        0.0068
     14 C          61.8810   81.5599   14.4022 C.ar    1  UNL1        0.0298
     15 C          62.6524   80.6410   13.5020 C.ar    1  UNL1        0.1401
     16 F          62.3155   79.1801   13.4550 F       1  UNL1       -0.2042
     17 C          63.7607   81.1829   12.6488 C.ar    1  UNL1        0.0298
     18 C          64.0975   82.6438   12.6958 C.ar    1  UNL1        0.0068
     19 C          58.5776   90.3103    5.5465 C.3     1  UNL1        0.0744
     20 C          59.1074   89.5528    6.7279 C.ar    1  UNL1        0.1481
     21 N          58.6822   88.1800    7.1578 N.ar    1  UNL1       -0.1929
     22 S          59.4674   87.8140    8.3824 S.2     1  UNL1        0.0369
     23 C          60.3777   88.9604    8.7093 C.ar    1  UNL1        0.1652
     24 N          60.1552   90.0351    7.6868 N.ar    1  UNL1       -0.2190
@<TRIPOS>BOND
     1    19    20    1
     2    20    21   ar
     3    21    22   ar
     4    22    23   ar
     5    23     1    1
     6     1     2   ar
     7     2     3   ar
     8     3     4   ar
     9     4     5   ar
    10     5     6    1
    11     6     7    1
    12     7     8    1
    13     8     9   am
    14     9    10    2
    15     9    12    1
    16    12    13   ar
    17    13    14   ar
    18    14    15   ar
    19    15    16    1
    20    15    17   ar
    21    17    18   ar
    22     8    11    1
    23    23    24   ar
    24    24    20   ar
    25     5     1   ar
    26    18    12   ar
    27    11     4    1
@<TRIPOS>MOLECULE
*****
 24 27 0 0 0
SMALL
GASTEIGER

@<TRIPOS>ATOM
      1 C          64.2399   91.0540   13.3937 C.ar    1  UNL1        0.1917
      2 N          63.5336   91.9085   12.3833 N.ar    1  UNL1       -0.1268
      3 N          62.7398   91.0055   11.4864 N.ar    1  UNL1       -0.1315
      4 C          62.9555   89.5929   11.9425 C.ar    1  UNL1        0.1636
      5 N          63.8826   89.6229   13.1213 N.ar    1  UNL1       -0.2939
      6 C          64.2817   88.3432   13.7944 C.3     1  UNL1        0.1302
      7 C          63.7536   87.0335   13.2886 C.3     1  UNL1        0.1186
      8 N          62.8265   87.0035   12.1098 N.am    1  UNL1       -0.2670
      9 C          62.2985   85.6937   11.6041 C.2     1  UNL1        0.2494
     10 O          61.3714   85.6637   10.4253 O.2     1  UNL1       -0.2699
     11 C          62.4275   88.2832   11.4368 C.3     1  UNL1        0.1599
     12 C          62.6975   84.4140   12.2771 C.ar    1  UNL1        0.0537
     13 C          62.3459   84.1824   13.7168 C.ar    1  UNL1        0.0068
     14 C          62.7450   82.9026   14.3899 C.ar    1  UNL1        0.0298
     15 C          63.4957   81.8545   13.6232 C.ar    1  UNL1        0.1401
     16 F          63.8948   80.5748   14.2963 F       1  UNL1       -0.2042
     17 C          63.8474   82.0861   12.1835 C.ar    1  UNL1        0.0298
     18 C          63.4483   83.3658   11.5105 C.ar    1  UNL1        0.0068
     19 C          68.5591   92.4917   16.0692 C.3     1  UNL1        0.0744
     20 C          67.1299   92.2053   15.7148 C.ar    1  UNL1        0.1481
     21 N          65.9439   92.3932   16.6137 N.ar    1  UNL1       -0.1929
     22 S          64.7170   91.9848   15.8536 S.2     1  UNL1        0.0369
     23 C          65.1446   91.5445   14.4850 C.ar    1  UNL1        0.1652
     24 N          66.6360   91.6808   14.3991 N.ar    1  UNL1       -0.2190
@<TRIPOS>BOND
     1    19    20    1
     2    20    21   ar
     3    21    22   ar
     4    22    23   ar
     5    23     1    1
     6     1     2   ar
     7     2     3   ar
     8     3     4   ar
     9     4     5   ar
    10     5     6    1
    11     6     7    1
    12     7     8    1
    13     8     9   am
    14     9    10    2
    15     9    12    1
    16    12    13   ar
    17    13    14   ar
    18    14    15   ar
    19    15    16    1
    20    15    17   ar
    21    17    18   ar
    22     8    11    1
    23    23    24   ar
    24    24    20   ar
    25     5     1   ar
    26    18    12   ar
    27    11     4    1
@<TRIPOS>MOLECULE
*****
 24 27 0 0 0
SMALL
GASTEIGER

@<TRIPOS>ATOM
      1 C          62.4123   84.8944   11.9550 C.ar    1  UNL1        0.1917
      2 N          61.5838   84.9054   10.7047 N.ar    1  UNL1       -0.1268
      3 N          61.5065   86.3202   10.2123 N.ar    1  UNL1       -0.1315
      4 C          62.2873   87.1835   11.1584 C.ar    1  UNL1        0.1636
      5 N          62.8472   86.3023   12.2354 N.ar    1  UNL1       -0.2939
      6 C          63.6805   86.8958   13.3323 C.3     1  UNL1        0.1302
      7 C          63.9541   88.3705   13.3522 C.3     1  UNL1        0.1186
      8 N          63.3942   89.2517   12.2751 N.am    1  UNL1       -0.2670
      9 C          63.6678   90.7265   12.2949 C.2     1  UNL1        0.2494
     10 O          63.1080   91.6077   11.2179 O.2     1  UNL1       -0.2699
     11 C          62.5609   88.6582   11.1782 C.3     1  UNL1        0.1599
     12 C          64.5012   91.3199   13.3918 C.ar    1  UNL1        0.0537
     13 C          64.0640   91.1885   14.8207 C.ar    1  UNL1        0.0068
     14 C          64.8975   91.7821   15.9176 C.ar    1  UNL1        0.0298
     15 C          66.1680   92.5070   15.5857 C.ar    1  UNL1        0.1401
     16 F          67.0014   93.1004   16.6826 F       1  UNL1       -0.2042
     17 C          66.6052   92.6384   14.1568 C.ar    1  UNL1        0.0298
     18 C          65.7718   92.0449   13.0599 C.ar    1  UNL1        0.0068
     19 C          62.7291   79.9068   13.6594 C.3     1  UNL1        0.0744
     20 C          62.8928   81.3948   13.5636 C.ar    1  UNL1        0.1481
     21 N          63.6325   82.2649   14.5363 N.ar    1  UNL1       -0.1929
     22 S          63.5424   83.6817   14.0520 S.2     1  UNL1        0.0369
     23 C          62.7473   83.6873   12.7802 C.ar    1  UNL1        0.1652
     24 N          62.3458   82.2739   12.4783 N.ar    1  UNL1       -0.2190
@<TRIPOS>BOND
     1    19    20    1
     2    20    21   ar
     3    21    22   ar
     4    22    23   ar
     5    23     1    1
     6     1     2   ar
     7     2     3   ar
     8     3     4   ar
     9     4     5   ar
    10     5     6    1
    11     6     7    1
    12     7     8    1
    13     8     9   am
    14     9    10    2
    15     9    12    1
    16    12    13   ar
    17    13    14   ar
    18    14    15   ar
    19    15    16    1
    20    15    17   ar
    21    17    18   ar
    22     8    11    1
    23    23    24   ar
    24    24    20   ar
    25     5     1   ar
    26    18    12   ar
    27    11     4    1
@<TRIPOS>MOLECULE
*****
 24 27 0 0 0
SMALL
GASTEIGER

@<TRIPOS>ATOM
      1 C          66.0851   93.6550   12.5704 C.ar    1  UNL1        0.1917
      2 N          66.7029   93.7415   13.9346 N.ar    1  UNL1       -0.1268
      3 N          66.3554   92.4877   14.6810 N.ar    1  UNL1       -0.1315
      4 C          65.5230   91.6263   13.7783 C.ar    1  UNL1        0.1636
      5 N          65.3559   92.3477   12.4738 N.ar    1  UNL1       -0.2939
      6 C          64.5613   91.7211   11.3666 C.3     1  UNL1        0.1302
      7 C          63.9339   90.3730   11.5639 C.3     1  UNL1        0.1186
      8 N          64.1010   89.6516   12.8683 N.am    1  UNL1       -0.2670
      9 C          63.4735   88.3034   13.0655 C.2     1  UNL1        0.2494
     10 O          63.6406   87.5820   14.3700 O.2     1  UNL1       -0.2699
     11 C          64.8955   90.2782   13.9755 C.3     1  UNL1        0.1599
     12 C          62.6789   87.6768   11.9583 C.ar    1  UNL1        0.0537
     13 C          61.9813   88.5435   10.9523 C.ar    1  UNL1        0.0068
     14 C          61.1867   87.9168    9.8450 C.ar    1  UNL1        0.0298
     15 C          61.0898   86.4234    9.7438 C.ar    1  UNL1        0.1401
     16 F          60.2953   85.7968    8.6366 F       1  UNL1       -0.2042
     17 C          61.7874   85.5566   10.7498 C.ar    1  UNL1        0.0298
     18 C          62.5820   86.1833   11.8571 C.ar    1  UNL1        0.0068
     19 C          66.8350   95.9794    7.8890 C.3     1  UNL1        0.0744
     20 C          66.5245   95.7618    9.3404 C.ar    1  UNL1        0.1481
     21 N          66.1268   96.8210   10.3253 N.ar    1  UNL1       -0.1929
     22 S          65.9138   96.1605   11.6551 S.2     1  UNL1        0.0369
     23 C          66.1798   94.6934   11.4922 C.ar    1  UNL1        0.1652
     24 N          66.5573   94.4469   10.0615 N.ar    1  UNL1       -0.2190
@<TRIPOS>BOND
     1    19    20    1
     2    20    21   ar
     3    21    22   ar
     4    22    23   ar
     5    23     1    1
     6     1     2   ar
     7     2     3   ar
     8     3     4   ar
     9     4     5   ar
    10     5     6    1
    11     6     7    1
    12     7     8    1
    13     8     9   am
    14     9    10    2
    15     9    12    1
    16    12    13   ar
    17    13    14   ar
    18    14    15   ar
    19    15    16    1
    20    15    17   ar
    21    17    18   ar
    22     8    11    1
    23    23    24   ar
    24    24    20   ar
    25     5     1   ar
    26    18    12   ar
    27    11     4    1
@<TRIPOS>MOLECULE
*****
 24 27 0 0 0
SMALL
GASTEIGER

@<TRIPOS>ATOM
      1 C          63.2384   82.9947   13.6688 C.ar    1  UNL1        0.1917
      2 N          62.8564   82.3607   14.9734 N.ar    1  UNL1       -0.1268
      3 N          62.8058   83.4387   16.0152 N.ar    1  UNL1       -0.1315
      4 C          63.1566   84.7388   15.3545 C.ar    1  UNL1        0.1636
      5 N          63.4239   84.4644   13.9043 N.ar    1  UNL1       -0.2939
      6 C          63.8018   85.5883   12.9855 C.3     1  UNL1        0.1302
      7 C          63.9122   86.9866   13.5170 C.3     1  UNL1        0.1186
      8 N          63.6449   87.2610   14.9673 N.am    1  UNL1       -0.2670
      9 C          63.7553   88.6594   15.4988 C.2     1  UNL1        0.2494
     10 O          63.4880   88.9338   16.9490 O.2     1  UNL1       -0.2699
     11 C          63.2670   86.1371   15.8860 C.3     1  UNL1        0.1599
     12 C          64.1332   89.7832   14.5801 C.ar    1  UNL1        0.0537
     13 C          63.2558   90.1246   13.4123 C.ar    1  UNL1        0.0068
     14 C          63.6337   91.2485   12.4935 C.ar    1  UNL1        0.0298
     15 C          64.8889   92.0310   12.7426 C.ar    1  UNL1        0.1401
     16 F          65.2667   93.1549   11.8238 F       1  UNL1       -0.2042
     17 C          65.7663   91.6897   13.9103 C.ar    1  UNL1        0.0298
     18 C          65.3885   90.5658   14.8291 C.ar    1  UNL1        0.0068
     19 C          62.8032   79.4287    9.7990 C.3     1  UNL1        0.0744
     20 C          63.2055   80.6446   10.5798 C.ar    1  UNL1        0.1481
     21 N          64.1201   81.7347   10.1049 N.ar    1  UNL1       -0.1929
     22 S          64.2436   82.7476   11.2043 S.2     1  UNL1        0.0369
     23 C          63.4056   82.2837   12.3586 C.ar    1  UNL1        0.1652
     24 N          62.7639   80.9840   11.9726 N.ar    1  UNL1       -0.2190
@<TRIPOS>BOND
     1    19    20    1
     2    20    21   ar
     3    21    22   ar
     4    22    23   ar
     5    23     1    1
     6     1     2   ar
     7     2     3   ar
     8     3     4   ar
     9     4     5   ar
    10     5     6    1
    11     6     7    1
    12     7     8    1
    13     8     9   am
    14     9    10    2
    15     9    12    1
    16    12    13   ar
    17    13    14   ar
    18    14    15   ar
    19    15    16    1
    20    15    17   ar
    21    17    18   ar
    22     8    11    1
    23    23    24   ar
    24    24    20   ar
    25     5     1   ar
    26    18    12   ar
    27    11     4    1
@<TRIPOS>MOLECULE
*****
 24 27 0 0 0
SMALL
GASTEIGER

@<TRIPOS>ATOM
      1 C          44.1071   81.8214   16.3513 C.ar    1  UNL1        0.1917
      2 N          43.8382   82.9898   17.2527 N.ar    1  UNL1       -0.1268
      3 N          44.1400   82.5684   18.6602 N.ar    1  UNL1       -0.1315
      4 C          44.5956   81.1395   18.6288 C.ar    1  UNL1        0.1636
      5 N          44.5752   80.6779   17.2017 N.ar    1  UNL1       -0.2939
      6 C          44.9855   79.2759   16.8611 C.3     1  UNL1        0.1302
      7 C          45.4162   78.3356   17.9475 C.3     1  UNL1        0.1186
      8 N          45.4366   78.7973   19.3745 N.am    1  UNL1       -0.2670
      9 C          45.8673   77.8569   20.4610 C.2     1  UNL1        0.2494
     10 O          45.8876   78.3186   21.8880 O.2     1  UNL1       -0.2699
     11 C          45.0262   80.1992   19.7152 C.3     1  UNL1        0.1599
     12 C          46.2776   76.4549   20.1203 C.ar    1  UNL1        0.0537
     13 C          45.2607   75.3523   20.1308 C.ar    1  UNL1        0.0068
     14 C          45.6711   73.9503   19.7902 C.ar    1  UNL1        0.0298
     15 C          47.0983   73.6509   19.4390 C.ar    1  UNL1        0.1401
     16 F          47.5086   72.2490   19.0984 F       1  UNL1       -0.2042
     17 C          48.1152   74.7536   19.4285 C.ar    1  UNL1        0.0298
     18 C          47.7049   76.1555   19.7691 C.ar    1  UNL1        0.0068
     19 C          43.6330   83.3793   11.3284 C.3     1  UNL1        0.0744
     20 C          43.7198   82.5163   12.5523 C.ar    1  UNL1        0.1481
     21 N          43.6343   81.0190   12.5832 N.ar    1  UNL1       -0.1929
     22 S          43.7690   80.5765   14.0101 S.2     1  UNL1        0.0369
     23 C          43.9377   81.8002   14.8610 C.ar    1  UNL1        0.1652
     24 N          43.9073   82.9991   13.9600 N.ar    1  UNL1       -0.2190
@<TRIPOS>BOND
     1    19    20    1
     2    20    21   ar
     3    21    22   ar
     4    22    23   ar
     5    23     1    1
     6     1     2   ar
     7     2     3   ar
     8     3     4   ar
     9     4     5   ar
    10     5     6    1
    11     6     7    1
    12     7     8    1
    13     8     9   am
    14     9    10    2
    15     9    12    1
    16    12    13   ar
    17    13    14   ar
    18    14    15   ar
    19    15    16    1
    20    15    17   ar
    21    17    18   ar
    22     8    11    1
    23    23    24   ar
    24    24    20   ar
    25     5     1   ar
    26    18    12   ar
    27    11     4    1
