@<TRIPOS>MOLECULE
*****
 25 27 0 0 0
SMALL
GASTEIGER

@<TRIPOS>ATOM
      1 N          66.0748   93.1360   13.0550 N.ar    1  UNL1       -0.3165
      2 C          66.9231   93.0604   14.2898 C.ar    1  UNL1        0.0779
      3 C          66.5720   91.7962   15.0166 C.ar    1  UNL1        0.0392
      4 C          65.5066   91.0904   14.2311 C.ar    1  UNL1        0.0985
      5 N          64.7767   89.8008   14.4631 N.ar    1  UNL1       -0.2423
      6 C          63.7394   89.3393   13.4828 C.ar    1  UNL1        0.0989
      7 C          63.4322   90.1674   12.2704 C.ar    1  UNL1        0.0206
      8 C          64.1622   91.4570   12.0384 C.ar    1  UNL1        0.0203
      9 C          65.1994   91.9186   13.0187 C.ar    1  UNL1        0.0782
     10 C          62.3949   89.7057   11.2901 C.ar    1  UNL1        0.0015
     11 C          61.2092   90.5735   10.9884 C.ar    1  UNL1        0.0023
     12 C          60.1719   90.1119   10.0081 C.ar    1  UNL1        0.0295
     13 C          60.3204   88.7825    9.3294 C.ar    1  UNL1        0.1414
     14 F          59.2832   88.3209    8.3491 F       1  UNL1       -0.2043
     15 C          61.5062   87.9147    9.6311 C.ar    1  UNL1        0.0710
     16 C          62.5434   88.3763   10.6114 C.ar    1  UNL1        0.0034
     17 C          61.6547   86.5853    8.9524 C.3     1  UNL1        0.3432
     18 F          60.4569   85.7029    8.7611 F       1  UNL1       -0.1932
     19 F          63.0011   86.1383    8.4649 F       1  UNL1       -0.1932
     20 C          66.0979   94.2361   12.0355 C.3     1  UNL1        0.1920
     21 C          67.3836   94.8458    8.3307 C.3     1  UNL1        0.1150
     22 N          66.6660   95.0450    9.6327 N.am    1  UNL1       -0.2744
     23 C          65.7990   96.2523    9.8342 C.3     1  UNL1        0.1150
     24 C          66.8155   94.0369   10.7333 C.2     1  UNL1        0.2488
     25 O          67.6825   92.8295   10.5318 O.2     1  UNL1       -0.2728
@<TRIPOS>BOND
     1    21    22    1
     2    22    23    1
     3    22    24   am
     4    24    25    2
     5    24    20    1
     6    20     1    1
     7     1     2   ar
     8     2     3   ar
     9     3     4   ar
    10     4     5   ar
    11     5     6   ar
    12     6     7   ar
    13     7    10    1
    14    10    11   ar
    15    11    12   ar
    16    12    13   ar
    17    13    14    1
    18    13    15   ar
    19    15    17    1
    20    17    18    1
    21    17    19    1
    22    15    16   ar
    23     7     8   ar
    24     8     9   ar
    25     9     1   ar
    26     9     4   ar
    27    16    10   ar
@<TRIPOS>MOLECULE
*****
 25 27 0 0 0
SMALL
GASTEIGER

@<TRIPOS>ATOM
      1 N          62.8502   89.9211   11.5765 N.ar    1  UNL1       -0.3165
      2 C          62.0460   90.7621   10.6300 C.ar    1  UNL1        0.0779
      3 C          61.1770   89.8462    9.8201 C.ar    1  UNL1        0.0392
      4 C          61.4441   88.4392   10.2660 C.ar    1  UNL1        0.0985
      5 N          60.8793   87.1218    9.8239 N.ar    1  UNL1       -0.2423
      6 C          61.3486   85.8508   10.4673 C.ar    1  UNL1        0.0989
      7 C          62.3828   85.8970   11.5529 C.ar    1  UNL1        0.0206
      8 C          62.9476   87.2144   11.9950 C.ar    1  UNL1        0.0203
      9 C          62.4782   88.4855   11.3516 C.ar    1  UNL1        0.0782
     10 C          62.8521   84.6259   12.1963 C.ar    1  UNL1        0.0015
     11 C          63.5467   84.6699   13.5250 C.ar    1  UNL1        0.0023
     12 C          64.0161   83.3987   14.1684 C.ar    1  UNL1        0.0295
     13 C          63.7907   82.0836   13.4831 C.ar    1  UNL1        0.1414
     14 F          64.2600   80.8124   14.1264 F       1  UNL1       -0.2043
     15 C          63.0960   82.0396   12.1543 C.ar    1  UNL1        0.0710
     16 C          62.6268   83.3108   11.5109 C.ar    1  UNL1        0.0034
     17 C          62.8707   80.7245   11.4689 C.3     1  UNL1        0.3432
     18 F          63.0297   80.6171    9.9813 F       1  UNL1       -0.1932
     19 F          62.4864   79.5168   12.2713 F       1  UNL1       -0.1932
     20 C          63.8507   90.4269   12.5730 C.3     1  UNL1        0.1920
     21 C          64.0537   91.2258   16.4551 C.3     1  UNL1        0.1150
     22 N          64.4054   91.1775   14.9978 N.am    1  UNL1       -0.2744
     23 C          65.6632   91.8314   14.5076 C.3     1  UNL1        0.1150
     24 C          63.4991   90.4753   14.0305 C.2     1  UNL1        0.2488
     25 O          62.2413   89.8213   14.5206 O.2     1  UNL1       -0.2728
@<TRIPOS>BOND
     1    21    22    1
     2    22    23    1
     3    22    24   am
     4    24    25    2
     5    24    20    1
     6    20     1    1
     7     1     2   ar
     8     2     3   ar
     9     3     4   ar
    10     4     5   ar
    11     5     6   ar
    12     6     7   ar
    13     7    10    1
    14    10    11   ar
    15    11    12   ar
    16    12    13   ar
    17    13    14    1
    18    13    15   ar
    19    15    17    1
    20    17    18    1
    21    17    19    1
    22    15    16   ar
    23     7     8   ar
    24     8     9   ar
    25     9     1   ar
    26     9     4   ar
    27    16    10   ar
@<TRIPOS>MOLECULE
*****
 25 27 0 0 0
SMALL
GASTEIGER

@<TRIPOS>ATOM
      1 N          61.6398   86.3767    9.5573 N.ar    1  UNL1       -0.3165
      2 C          60.4262   86.3555    8.6759 C.ar    1  UNL1        0.0779
      3 C          59.7942   87.7149    8.7246 C.ar    1  UNL1        0.0392
      4 C          60.6171   88.5764    9.6361 C.ar    1  UNL1        0.0985
      5 N          60.4752   90.0070   10.0639 N.ar    1  UNL1       -0.2423
      6 C          61.4739   90.6105   11.0063 C.ar    1  UNL1        0.0989
      7 C          62.6145   89.7835   11.5209 C.ar    1  UNL1        0.0206
      8 C          62.7565   88.3528   11.0931 C.ar    1  UNL1        0.0203
      9 C          61.7578   87.7493   10.1507 C.ar    1  UNL1        0.0782
     10 C          63.6133   90.3871   12.4634 C.ar    1  UNL1        0.0015
     11 C          63.8382   89.7719   13.8128 C.ar    1  UNL1        0.0023
     12 C          64.8369   90.3755   14.7553 C.ar    1  UNL1        0.0295
     13 C          65.6107   91.5944   14.3483 C.ar    1  UNL1        0.1414
     14 F          66.6094   92.1980   15.2908 F       1  UNL1       -0.2043
     15 C          65.3857   92.2096   12.9989 C.ar    1  UNL1        0.0710
     16 C          64.3870   91.6060   12.0565 C.ar    1  UNL1        0.0034
     17 C          66.1595   93.4285   12.5919 C.3     1  UNL1        0.3432
     18 F          66.5846   93.6050   11.1643 F       1  UNL1       -0.1932
     19 F          66.5081   94.4710   13.6127 F       1  UNL1       -0.1932
     20 C          62.5718   85.2272    9.8022 C.3     1  UNL1        0.1920
     21 C          63.6929   82.8633   12.7864 C.3     1  UNL1        0.1150
     22 N          63.5536   83.4349   11.4067 N.am    1  UNL1       -0.2744
     23 C          64.2568   82.7860   10.2515 C.3     1  UNL1        0.1150
     24 C          62.7111   84.6555   11.1821 C.2     1  UNL1        0.2488
     25 O          62.0079   85.3044   12.3373 O.2     1  UNL1       -0.2728
@<TRIPOS>BOND
     1    21    22    1
     2    22    23    1
     3    22    24   am
     4    24    25    2
     5    24    20    1
     6    20     1    1
     7     1     2   ar
     8     2     3   ar
     9     3     4   ar
    10     4     5   ar
    11     5     6   ar
    12     6     7   ar
    13     7    10    1
    14    10    11   ar
    15    11    12   ar
    16    12    13   ar
    17    13    14    1
    18    13    15   ar
    19    15    17    1
    20    17    18    1
    21    17    19    1
    22    15    16   ar
    23     7     8   ar
    24     8     9   ar
    25     9     1   ar
    26     9     4   ar
    27    16    10   ar
@<TRIPOS>MOLECULE
*****
 25 27 0 0 0
SMALL
GASTEIGER

@<TRIPOS>ATOM
      1 N          63.7173   85.3046   15.1558 N.ar    1  UNL1       -0.3165
      2 C          62.9129   84.6869   16.2609 C.ar    1  UNL1        0.0779
      3 C          62.4317   85.7900   17.1563 C.ar    1  UNL1        0.0392
      4 C          62.9387   87.0894   16.6046 C.ar    1  UNL1        0.0985
      5 N          62.7796   88.5070   17.0683 N.ar    1  UNL1       -0.2423
      6 C          63.4150   89.6246   16.2956 C.ar    1  UNL1        0.0989
      7 C          64.2096   89.3246   15.0592 C.ar    1  UNL1        0.0206
      8 C          64.3687   87.9070   14.5955 C.ar    1  UNL1        0.0203
      9 C          63.7333   86.7894   15.3682 C.ar    1  UNL1        0.0782
     10 C          64.8450   90.4423   14.2865 C.ar    1  UNL1        0.0015
     11 C          64.2488   90.8875   12.9841 C.ar    1  UNL1        0.0023
     12 C          64.8842   92.0052   12.2114 C.ar    1  UNL1        0.0295
     13 C          66.1159   92.6777   12.7412 C.ar    1  UNL1        0.1414
     14 F          66.7514   93.7954   11.9685 F       1  UNL1       -0.2043
     15 C          66.7122   92.2325   14.0436 C.ar    1  UNL1        0.0710
     16 C          66.0768   91.1148   14.8162 C.ar    1  UNL1        0.0034
     17 C          67.9439   92.9050   14.5734 C.3     1  UNL1        0.3432
     18 F          69.2993   92.3491   14.2512 F       1  UNL1       -0.1932
     19 F          67.8202   94.1334   15.4253 F       1  UNL1       -0.1932
     20 C          64.3880   84.5670   14.0350 C.3     1  UNL1        0.1920
     21 C          62.6985   81.7278   11.8363 C.3     1  UNL1        0.1150
     22 N          63.2144   83.0691   12.2661 N.am    1  UNL1       -0.2744
     23 C          63.0729   84.2537   11.3569 C.3     1  UNL1        0.1150
     24 C          63.8720   83.2257   13.6052 C.2     1  UNL1        0.2488
     25 O          64.0135   82.0411   14.5143 O.2     1  UNL1       -0.2728
@<TRIPOS>BOND
     1    21    22    1
     2    22    23    1
     3    22    24   am
     4    24    25    2
     5    24    20    1
     6    20     1    1
     7     1     2   ar
     8     2     3   ar
     9     3     4   ar
    10     4     5   ar
    11     5     6   ar
    12     6     7   ar
    13     7    10    1
    14    10    11   ar
    15    11    12   ar
    16    12    13   ar
    17    13    14    1
    18    13    15   ar
    19    15    17    1
    20    17    18    1
    21    17    19    1
    22    15    16   ar
    23     7     8   ar
    24     8     9   ar
    25     9     1   ar
    26     9     4   ar
    27    16    10   ar
@<TRIPOS>MOLECULE
*****
 25 27 0 0 0
SMALL
GASTEIGER

@<TRIPOS>ATOM
      1 N          63.7734   85.8470   15.3063 N.ar    1  UNL1       -0.3165
      2 C          63.0119   85.2318   16.4428 C.ar    1  UNL1        0.0779
      3 C          62.5745   86.3359   17.3591 C.ar    1  UNL1        0.0392
      4 C          63.0656   87.6335   16.7889 C.ar    1  UNL1        0.0985
      5 N          62.9339   89.0511   17.2610 N.ar    1  UNL1       -0.2423
      6 C          63.5431   90.1665   16.4644 C.ar    1  UNL1        0.0989
      7 C          64.2841   89.8644   15.1957 C.ar    1  UNL1        0.0206
      8 C          64.4158   88.4467   14.7236 C.ar    1  UNL1        0.0203
      9 C          63.8066   87.3313   15.5202 C.ar    1  UNL1        0.0782
     10 C          64.8933   90.9799   14.3991 C.ar    1  UNL1        0.0015
     11 C          65.8258   91.9512   15.0602 C.ar    1  UNL1        0.0023
     12 C          66.4350   93.0667   14.2636 C.ar    1  UNL1        0.0295
     13 C          66.1117   93.2109   12.8060 C.ar    1  UNL1        0.1414
     14 F          66.7209   94.3264   12.0094 F       1  UNL1       -0.2043
     15 C          65.1792   92.2395   12.1449 C.ar    1  UNL1        0.0710
     16 C          64.5700   91.1241   12.9415 C.ar    1  UNL1        0.0034
     17 C          64.8559   92.3837   10.6873 C.3     1  UNL1        0.3432
     18 F          65.8170   93.0818    9.7714 F       1  UNL1       -0.1932
     19 F          63.5715   91.8296   10.1456 F       1  UNL1       -0.1932
     20 C          64.3930   85.1077   14.1576 C.3     1  UNL1        0.1920
     21 C          62.5375   82.2605   12.1079 C.3     1  UNL1        0.1150
     22 N          63.0638   83.6082   12.5037 N.am    1  UNL1       -0.2744
     23 C          62.7874   84.8042   11.6416 C.3     1  UNL1        0.1150
     24 C          63.8666   83.7599   13.7617 C.2     1  UNL1        0.2488
     25 O          64.1430   82.5640   14.6238 O.2     1  UNL1       -0.2728
@<TRIPOS>BOND
     1    21    22    1
     2    22    23    1
     3    22    24   am
     4    24    25    2
     5    24    20    1
     6    20     1    1
     7     1     2   ar
     8     2     3   ar
     9     3     4   ar
    10     4     5   ar
    11     5     6   ar
    12     6     7   ar
    13     7    10    1
    14    10    11   ar
    15    11    12   ar
    16    12    13   ar
    17    13    14    1
    18    13    15   ar
    19    15    17    1
    20    17    18    1
    21    17    19    1
    22    15    16   ar
    23     7     8   ar
    24     8     9   ar
    25     9     1   ar
    26     9     4   ar
    27    16    10   ar
@<TRIPOS>MOLECULE
*****
 25 27 0 0 0
SMALL
GASTEIGER

@<TRIPOS>ATOM
      1 N          62.3972   86.1448   11.7296 N.ar    1  UNL1       -0.3165
      2 C          61.2980   85.7159   10.8036 C.ar    1  UNL1        0.0779
      3 C          60.7644   86.9395   10.1195 C.ar    1  UNL1        0.0392
      4 C          61.5339   88.1247   10.6228 C.ar    1  UNL1        0.0985
      5 N          61.4461   89.5876   10.3034 N.ar    1  UNL1       -0.2423
      6 C          62.3674   90.5594   10.9793 C.ar    1  UNL1        0.0989
      7 C          63.3766   90.0682   11.9744 C.ar    1  UNL1        0.0206
      8 C          63.4644   88.6052   12.2937 C.ar    1  UNL1        0.0203
      9 C          62.5431   87.6335   11.6179 C.ar    1  UNL1        0.0782
     10 C          64.2980   91.0400   12.6503 C.ar    1  UNL1        0.0015
     11 C          64.6540   90.8550   14.0956 C.ar    1  UNL1        0.0023
     12 C          65.5753   91.8269   14.7714 C.ar    1  UNL1        0.0295
     13 C          66.1407   92.9837   14.0019 C.ar    1  UNL1        0.1414
     14 F          67.0620   93.9555   14.6776 F       1  UNL1       -0.2043
     15 C          65.7846   93.1686   12.5565 C.ar    1  UNL1        0.0710
     16 C          64.8633   92.1968   11.8807 C.ar    1  UNL1        0.0034
     17 C          66.3499   94.3255   11.7869 C.3     1  UNL1        0.3432
     18 F          66.1062   95.7292   12.2561 F       1  UNL1       -0.1932
     19 F          67.1590   94.0785   10.5482 F       1  UNL1       -0.1932
     20 C          63.2083   85.2432   12.6125 C.3     1  UNL1        0.1920
     21 C          62.0176   81.8353   14.2611 C.3     1  UNL1        0.1150
     22 N          62.4011   83.2771   14.1069 N.am    1  UNL1       -0.2744
     23 C          62.3612   84.1949   15.2927 C.3     1  UNL1        0.1150
     24 C          62.8247   83.8013   12.7668 C.2     1  UNL1        0.2488
     25 O          62.8646   82.8835   11.5809 O.2     1  UNL1       -0.2728
@<TRIPOS>BOND
     1    21    22    1
     2    22    23    1
     3    22    24   am
     4    24    25    2
     5    24    20    1
     6    20     1    1
     7     1     2   ar
     8     2     3   ar
     9     3     4   ar
    10     4     5   ar
    11     5     6   ar
    12     6     7   ar
    13     7    10    1
    14    10    11   ar
    15    11    12   ar
    16    12    13   ar
    17    13    14    1
    18    13    15   ar
    19    15    17    1
    20    17    18    1
    21    17    19    1
    22    15    16   ar
    23     7     8   ar
    24     8     9   ar
    25     9     1   ar
    26     9     4   ar
    27    16    10   ar
@<TRIPOS>MOLECULE
*****
 25 27 0 0 0
SMALL
GASTEIGER

@<TRIPOS>ATOM
      1 N          61.5549   86.3610    9.4555 N.ar    1  UNL1       -0.3165
      2 C          60.2398   86.1088    8.7795 C.ar    1  UNL1        0.0779
      3 C          59.5023   87.4125    8.6995 C.ar    1  UNL1        0.0392
      4 C          60.3615   88.4704    9.3260 C.ar    1  UNL1        0.0985
      5 N          60.1526   89.9415    9.5314 N.ar    1  UNL1       -0.2423
      6 C          61.2123   90.7627   10.2041 C.ar    1  UNL1        0.0989
      7 C          62.4809   90.1129   10.6713 C.ar    1  UNL1        0.0206
      8 C          62.6898   88.6418   10.4659 C.ar    1  UNL1        0.0203
      9 C          61.6301   87.8206    9.7933 C.ar    1  UNL1        0.0782
     10 C          63.5407   90.9342   11.3440 C.ar    1  UNL1        0.0015
     11 C          64.2828   91.9817   10.5683 C.ar    1  UNL1        0.0023
     12 C          65.3426   92.8030   11.2410 C.ar    1  UNL1        0.0295
     13 C          65.6601   92.5767   12.6894 C.ar    1  UNL1        0.1414
     14 F          66.7198   93.3980   13.3621 F       1  UNL1       -0.2043
     15 C          64.9179   91.5291   13.4652 C.ar    1  UNL1        0.0710
     16 C          63.8582   90.7079   12.7925 C.ar    1  UNL1        0.0034
     17 C          65.2355   91.3028   14.9136 C.3     1  UNL1        0.3432
     18 F          64.1288   91.0437   15.8924 F       1  UNL1       -0.1932
     19 F          66.6598   91.3356   15.3832 F       1  UNL1       -0.1932
     20 C          62.6096   85.3340    9.7432 C.3     1  UNL1        0.1920
     21 C          63.7983   83.0607   12.7713 C.3     1  UNL1        0.1150
     22 N          63.6273   83.5901   11.3783 N.am    1  UNL1       -0.2744
     23 C          64.3029   82.9053   10.2275 C.3     1  UNL1        0.1150
     24 C          62.7806   84.8045   11.1363 C.2     1  UNL1        0.2488
     25 O          62.1050   85.4893   12.2871 O.2     1  UNL1       -0.2728
@<TRIPOS>BOND
     1    21    22    1
     2    22    23    1
     3    22    24   am
     4    24    25    2
     5    24    20    1
     6    20     1    1
     7     1     2   ar
     8     2     3   ar
     9     3     4   ar
    10     4     5   ar
    11     5     6   ar
    12     6     7   ar
    13     7    10    1
    14    10    11   ar
    15    11    12   ar
    16    12    13   ar
    17    13    14    1
    18    13    15   ar
    19    15    17    1
    20    17    18    1
    21    17    19    1
    22    15    16   ar
    23     7     8   ar
    24     8     9   ar
    25     9     1   ar
    26     9     4   ar
    27    16    10   ar
@<TRIPOS>MOLECULE
*****
 25 27 0 0 0
SMALL
GASTEIGER

@<TRIPOS>ATOM
      1 N          62.5096   86.2406   11.9786 N.ar    1  UNL1       -0.3165
      2 C          61.4256   85.7142   11.0853 C.ar    1  UNL1        0.0779
      3 C          60.8881   86.8619   10.2830 C.ar    1  UNL1        0.0392
      4 C          61.6398   88.0976   10.6804 C.ar    1  UNL1        0.0985
      5 N          61.5413   89.5229   10.2234 N.ar    1  UNL1       -0.2423
      6 C          62.4449   90.5641   10.8144 C.ar    1  UNL1        0.0989
      7 C          63.4471   90.1801   11.8623 C.ar    1  UNL1        0.0206
      8 C          63.5456   88.7548   12.3193 C.ar    1  UNL1        0.0203
      9 C          62.6420   87.7136   11.7283 C.ar    1  UNL1        0.0782
     10 C          64.3507   91.2214   12.4533 C.ar    1  UNL1        0.0015
     11 C          64.9833   92.2547   11.5690 C.ar    1  UNL1        0.0023
     12 C          65.8870   93.2960   12.1599 C.ar    1  UNL1        0.0295
     13 C          66.1579   93.3040   13.6352 C.ar    1  UNL1        0.1414
     14 F          67.0615   94.3452   14.2262 F       1  UNL1       -0.2043
     15 C          65.5252   92.2706   14.5196 C.ar    1  UNL1        0.0710
     16 C          64.6216   91.2294   13.9286 C.ar    1  UNL1        0.0034
     17 C          65.7962   92.2786   15.9949 C.3     1  UNL1        0.3432
     18 F          64.6542   92.2602   16.9673 F       1  UNL1       -0.1932
     19 F          67.2092   92.3050   16.4978 F       1  UNL1       -0.1932
     20 C          63.3191   85.4353   12.9514 C.3     1  UNL1        0.1920
     21 C          61.9928   81.8922   14.1504 C.3     1  UNL1        0.1150
     22 N          62.6551   82.9505   13.3189 N.am    1  UNL1       -0.2744
     23 C          63.3156   82.5824   12.0234 C.3     1  UNL1        0.1150
     24 C          62.6568   84.3769   13.7829 C.2     1  UNL1        0.2488
     25 O          61.9962   84.7450   15.0783 O.2     1  UNL1       -0.2728
@<TRIPOS>BOND
     1    21    22    1
     2    22    23    1
     3    22    24   am
     4    24    25    2
     5    24    20    1
     6    20     1    1
     7     1     2   ar
     8     2     3   ar
     9     3     4   ar
    10     4     5   ar
    11     5     6   ar
    12     6     7   ar
    13     7    10    1
    14    10    11   ar
    15    11    12   ar
    16    12    13   ar
    17    13    14    1
    18    13    15   ar
    19    15    17    1
    20    17    18    1
    21    17    19    1
    22    15    16   ar
    23     7     8   ar
    24     8     9   ar
    25     9     1   ar
    26     9     4   ar
    27    16    10   ar
@<TRIPOS>MOLECULE
*****
 25 27 0 0 0
SMALL
GASTEIGER

@<TRIPOS>ATOM
      1 N          63.7156   84.5146   14.6566 N.ar    1  UNL1       -0.3165
      2 C          64.5488   85.1563   15.7262 C.ar    1  UNL1        0.0779
      3 C          64.7174   86.6049   15.3757 C.ar    1  UNL1        0.0392
      4 C          63.9884   86.8586   14.0895 C.ar    1  UNL1        0.0985
      5 N          63.8085   88.0990   13.2656 N.ar    1  UNL1       -0.2423
      6 C          63.0093   88.0475   11.9972 C.ar    1  UNL1        0.0989
      7 C          62.3902   86.7556   11.5528 C.ar    1  UNL1        0.0206
      8 C          62.5702   85.5151   12.3767 C.ar    1  UNL1        0.0203
      9 C          63.3693   85.5666   13.6450 C.ar    1  UNL1        0.0782
     10 C          61.5910   86.7041   10.2844 C.ar    1  UNL1        0.0015
     11 C          60.3633   87.5530   10.1365 C.ar    1  UNL1        0.0023
     12 C          59.5641   87.5015    8.8681 C.ar    1  UNL1        0.0295
     13 C          59.9928   86.6011    7.7476 C.ar    1  UNL1        0.1414
     14 F          59.1937   86.5496    6.4793 F       1  UNL1       -0.2043
     15 C          61.2206   85.7522    7.8956 C.ar    1  UNL1        0.0710
     16 C          62.0197   85.8037    9.1639 C.ar    1  UNL1        0.0034
     17 C          61.6493   84.8518    6.7751 C.3     1  UNL1        0.3432
     18 F          60.6244   84.0744    6.0036 F       1  UNL1       -0.1932
     19 F          63.1030   84.7288    6.4260 F       1  UNL1       -0.1932
     20 C          63.3015   83.0737   14.6072 C.3     1  UNL1        0.1920
     21 C          62.8095   80.3681   11.7458 C.3     1  UNL1        0.1150
     22 N          62.5788   81.1724   12.9906 N.am    1  UNL1       -0.2744
     23 C          61.3948   80.8799   13.8639 C.3     1  UNL1        0.1150
     24 C          63.5321   82.2693   13.3622 C.2     1  UNL1        0.2488
     25 O          64.7161   82.5617   12.4889 O.2     1  UNL1       -0.2728
@<TRIPOS>BOND
     1    21    22    1
     2    22    23    1
     3    22    24   am
     4    24    25    2
     5    24    20    1
     6    20     1    1
     7     1     2   ar
     8     2     3   ar
     9     3     4   ar
    10     4     5   ar
    11     5     6   ar
    12     6     7   ar
    13     7    10    1
    14    10    11   ar
    15    11    12   ar
    16    12    13   ar
    17    13    14    1
    18    13    15   ar
    19    15    17    1
    20    17    18    1
    21    17    19    1
    22    15    16   ar
    23     7     8   ar
    24     8     9   ar
    25     9     1   ar
    26     9     4   ar
    27    16    10   ar
