@<TRIPOS>MOLECULE
*****
 32 34 0 0 0
SMALL
GASTEIGER

@<TRIPOS>ATOM
      1 S          63.8977   89.3502   15.4102 S.O2    1  UNL1        0.0455
      2 O          65.1739   89.2105   14.6345 O.2     1  UNL1       -0.1572
      3 O          62.6214   89.4898   16.1859 O.2     1  UNL1       -0.1572
      4 C          63.3864   84.8795   15.3739 C.3     1  UNL1        0.0032
      5 C          62.8891   85.6817   16.5396 C.3     1  UNL1        0.0192
      6 C          63.0595   87.1719   16.5517 C.3     1  UNL1        0.0954
      7 N          63.7272   87.8599   15.3981 N.3     1  UNL1       -0.1594
      8 C          64.2245   87.0576   14.2323 C.3     1  UNL1        0.0954
      9 C          64.0541   85.5674   14.2202 C.3     1  UNL1        0.0192
     10 C          63.2160   83.3892   15.3617 C.3     1  UNL1        0.0049
     11 C          62.1521   82.7629   14.5098 C.3     1  UNL1        0.0305
     12 C          62.6310   84.4113   11.7344 C.3     1  UNL1        0.0553
     13 C          62.7301   82.9243   11.9050 C.ar    1  UNL1        0.0966
     14 N          63.0666   81.9340   10.8298 N.ar    1  UNL1       -0.0821
     15 O          63.0545   80.5642   11.4411 O.2     1  UNL1       -0.3584
     16 C          62.7104   80.7080   12.8940 C.ar    1  UNL1        0.1504
     17 C          62.5883   79.5895   13.8860 C.3     1  UNL1        0.0750
     18 C          62.5099   82.1666   13.1807 C.ar    1  UNL1        0.0274
     19 C          64.0681   90.8404   15.4224 C.3     1  UNL1        0.1897
     20 C          64.6760   91.5354   14.2402 C.3     1  UNL1        0.1146
     21 C          63.5775   90.7746   13.5586 C.3     1  UNL1        0.0546
     22 C          63.3951   90.8892   12.0742 C.3     1  UNL1        0.1437
     23 O          64.3111   91.7647   11.2714 O.3     1  UNL1       -0.3584
     24 C          65.4096   92.5254   11.9530 C.3     1  UNL1        0.0946
     25 C          66.5867   93.4358   12.1418 C.3     1  UNL1        0.0297
     26 C          65.6359   92.9562   10.5341 C.3     1  UNL1        0.0297
     27 C          65.5920   92.4108   13.4374 C.3     1  UNL1        0.0498
     28 N          65.5633   92.0548   15.3324 N.am    1  UNL1       -0.1661
     29 O          64.9651   92.7619   16.5123 O.3     1  UNL1       -0.2915
     30 C          67.0490   91.8670   15.2447 C.2     1  UNL1        0.3268
     31 O          67.9363   92.3864   16.3369 O.2     1  UNL1       -0.2627
     32 H          64.0009   92.7977   16.4130 H       1  UNL1        0.2417
@<TRIPOS>BOND
     1    12    13    1
     2    13    14   ar
     3    14    15   ar
     4    15    16   ar
     5    16    17    1
     6    16    18   ar
     7    18    11    1
     8    11    10    1
     9    10     4    1
    10     4     5    1
    11     5     6    1
    12     6     7    1
    13     7     1    1
    14     1     2    2
    15     1     3    2
    16     1    19    1
    17    19    20    1
    18    20    28    1
    19    28    29    1
    20    28    30   am
    21    30    31    2
    22    20    21    1
    23    21    22    1
    24    22    23    1
    25    23    24    1
    26    24    25    1
    27    24    26    1
    28    24    27    1
    29     7     8    1
    30     8     9    1
    31    18    13   ar
    32     9     4    1
    33    27    20    1
    34    29    32    1
@<TRIPOS>MOLECULE
*****
 32 34 0 0 0
SMALL
GASTEIGER

@<TRIPOS>ATOM
      1 S          62.2788   89.6112   11.9895 S.O2    1  UNL1        0.0455
      2 O          62.0145   89.8363   13.4487 O.2     1  UNL1       -0.1572
      3 O          62.5430   89.3861   10.5302 O.2     1  UNL1       -0.1572
      4 C          65.7177   92.5081   12.1655 C.3     1  UNL1        0.0032
      5 C          64.9239   92.3623   10.9011 C.3     1  UNL1        0.0192
      6 C          63.7776   91.3967   10.8425 C.3     1  UNL1        0.0954
      7 N          63.4251   90.5769   12.0482 N.3     1  UNL1       -0.1594
      8 C          64.2189   90.7227   13.3125 C.3     1  UNL1        0.0954
      9 C          65.3652   91.6883   13.3711 C.3     1  UNL1        0.0192
     10 C          66.8641   93.4738   12.2242 C.3     1  UNL1        0.0049
     11 C          66.7373   94.8278   11.5913 C.3     1  UNL1        0.0305
     12 C          64.9661   96.8559    9.7477 C.3     1  UNL1        0.0553
     13 C          66.0134   95.9027    9.2534 C.ar    1  UNL1        0.0966
     14 N          66.4304   95.7143    7.8249 N.ar    1  UNL1       -0.0821
     15 O          67.5024   94.6656    7.7894 O.2     1  UNL1       -0.3584
     16 C          67.7478   94.2059    9.1961 C.ar    1  UNL1        0.1504
     17 C          68.7394   93.1644    9.6229 C.3     1  UNL1        0.0750
     18 C          66.8275   94.9705   10.1008 C.ar    1  UNL1        0.0274
     19 C          61.1325   88.6456   11.9308 C.3     1  UNL1        0.1897
     20 C          60.6971   88.0773   10.6126 C.3     1  UNL1        0.1146
     21 C          61.5132   86.9316   11.1334 C.3     1  UNL1        0.0546
     22 C          61.6631   85.6840   10.3141 C.3     1  UNL1        0.1437
     23 O          60.9969   85.5823    8.9741 O.3     1  UNL1       -0.3584
     24 C          60.1808   86.7281    8.4533 C.3     1  UNL1        0.0946
     25 C          59.3119   87.5383    7.5375 C.3     1  UNL1        0.0297
     26 C          60.0289   85.7619    7.3160 C.3     1  UNL1        0.0297
     27 C          60.0309   87.9756    9.2726 C.3     1  UNL1        0.0498
     28 N          60.0322   89.4204   10.5497 N.am    1  UNL1       -0.1661
     29 O          60.1353   90.2508    9.3047 O.3     1  UNL1       -0.2915
     30 C          59.2642   89.9332   11.7317 C.2     1  UNL1        0.3268
     31 O          58.5993   91.2763   11.6688 O.2     1  UNL1       -0.2627
     32 H          60.6619   89.7765    8.6424 H       1  UNL1        0.2417
@<TRIPOS>BOND
     1    12    13    1
     2    13    14   ar
     3    14    15   ar
     4    15    16   ar
     5    16    17    1
     6    16    18   ar
     7    18    11    1
     8    11    10    1
     9    10     4    1
    10     4     5    1
    11     5     6    1
    12     6     7    1
    13     7     1    1
    14     1     2    2
    15     1     3    2
    16     1    19    1
    17    19    20    1
    18    20    28    1
    19    28    29    1
    20    28    30   am
    21    30    31    2
    22    20    21    1
    23    21    22    1
    24    22    23    1
    25    23    24    1
    26    24    25    1
    27    24    26    1
    28    24    27    1
    29     7     8    1
    30     8     9    1
    31    18    13   ar
    32     9     4    1
    33    27    20    1
    34    29    32    1
@<TRIPOS>MOLECULE
*****
 32 34 0 0 0
SMALL
GASTEIGER

@<TRIPOS>ATOM
      1 S          62.2647   88.0877   11.3300 S.O2    1  UNL1        0.0455
      2 O          61.3223   88.7975   10.4037 O.2     1  UNL1       -0.1572
      3 O          63.2070   87.3779   12.2564 O.2     1  UNL1       -0.1572
      4 C          64.5425   91.9190   11.9483 C.3     1  UNL1        0.0032
      5 C          64.4119   90.9344   13.0723 C.3     1  UNL1        0.0192
      6 C          63.6526   89.6573   12.8662 C.3     1  UNL1        0.0954
      7 N          63.0240   89.3648   11.5361 N.3     1  UNL1       -0.1594
      8 C          63.1546   90.3494   10.4121 C.3     1  UNL1        0.0954
      9 C          63.9139   91.6265   10.6182 C.3     1  UNL1        0.0192
     10 C          65.3019   93.1961   12.1544 C.3     1  UNL1        0.0049
     11 C          66.7239   93.3065   11.6900 C.3     1  UNL1        0.0305
     12 C          65.9496   96.4474   11.2605 C.3     1  UNL1        0.0553
     13 C          66.7022   95.5845   10.2916 C.ar    1  UNL1        0.0966
     14 N          67.2310   96.0137    8.9552 N.ar    1  UNL1       -0.0821
     15 O          67.9138   94.8352    8.3266 O.2     1  UNL1       -0.3584
     16 C          67.8069   93.6776    9.2746 C.ar    1  UNL1        0.1504
     17 C          68.3530   92.2991    9.0479 C.3     1  UNL1        0.0750
     18 C          67.0581   94.1408   10.4890 C.ar    1  UNL1        0.0274
     19 C          61.5053   86.8106   11.1240 C.3     1  UNL1        0.1897
     20 C          62.2411   85.5064   11.0361 C.3     1  UNL1        0.1146
     21 C          62.1463   85.6522   12.5260 C.3     1  UNL1        0.0546
     22 C          62.7315   84.6005   13.4213 C.3     1  UNL1        0.1437
     23 O          63.4114   83.4030   12.8266 O.3     1  UNL1       -0.3584
     24 C          63.5061   83.2571   11.3367 C.3     1  UNL1        0.0946
     25 C          63.8450   82.6759    9.9961 C.3     1  UNL1        0.0297
     26 C          64.2090   82.0036   11.7664 C.3     1  UNL1        0.0297
     27 C          62.9210   84.3089   10.4415 C.3     1  UNL1        0.0498
     28 N          62.0803   85.8135    9.5768 N.am    1  UNL1       -0.1661
     29 O          63.2887   85.9142    8.6939 O.3     1  UNL1       -0.2915
     30 C          60.7110   86.0200    9.0002 C.2     1  UNL1        0.3268
     31 O          60.5502   86.3272    7.5409 O.2     1  UNL1       -0.2627
     32 H          64.0878   85.7551    9.2202 H       1  UNL1        0.2417
@<TRIPOS>BOND
     1    12    13    1
     2    13    14   ar
     3    14    15   ar
     4    15    16   ar
     5    16    17    1
     6    16    18   ar
     7    18    11    1
     8    11    10    1
     9    10     4    1
    10     4     5    1
    11     5     6    1
    12     6     7    1
    13     7     1    1
    14     1     2    2
    15     1     3    2
    16     1    19    1
    17    19    20    1
    18    20    28    1
    19    28    29    1
    20    28    30   am
    21    30    31    2
    22    20    21    1
    23    21    22    1
    24    22    23    1
    25    23    24    1
    26    24    25    1
    27    24    26    1
    28    24    27    1
    29     7     8    1
    30     8     9    1
    31    18    13   ar
    32     9     4    1
    33    27    20    1
    34    29    32    1
@<TRIPOS>MOLECULE
*****
 32 34 0 0 0
SMALL
GASTEIGER

@<TRIPOS>ATOM
      1 S          63.6533   85.2331   14.0253 S.O2    1  UNL1        0.0455
      2 O          62.3890   85.1152   13.2268 O.2     1  UNL1       -0.1572
      3 O          64.9176   85.3509   14.8238 O.2     1  UNL1       -0.1572
      4 C          63.7611   89.6557   13.2017 C.3     1  UNL1        0.0032
      5 C          64.3338   89.1165   14.4789 C.3     1  UNL1        0.0192
      6 C          64.2979   87.6423   14.7534 C.3     1  UNL1        0.0954
      7 N          63.6892   86.7073   13.7507 N.3     1  UNL1       -0.1594
      8 C          63.1166   87.2465   12.4735 C.3     1  UNL1        0.0954
      9 C          63.1525   88.7207   12.1990 C.3     1  UNL1        0.0192
     10 C          63.7971   91.1300   12.9271 C.3     1  UNL1        0.0049
     11 C          64.8524   91.9857   13.5626 C.3     1  UNL1        0.0305
     12 C          65.5553   92.7221   10.4621 C.3     1  UNL1        0.0553
     13 C          66.5483   92.3920   11.5368 C.ar    1  UNL1        0.0966
     14 N          68.0387   92.3424   11.3750 N.ar    1  UNL1       -0.0821
     15 O          68.6368   91.9733   12.7003 O.2     1  UNL1       -0.3584
     16 C          67.5159   91.7948   13.6810 C.ar    1  UNL1        0.1504
     17 C          67.6605   91.4228   15.1270 C.3     1  UNL1        0.0750
     18 C          66.2252   92.0535   12.9619 C.ar    1  UNL1        0.0274
     19 C          63.6173   83.7589   14.2999 C.3     1  UNL1        0.1897
     20 C          63.4198   82.7904   13.1716 C.3     1  UNL1        0.1146
     21 C          64.4324   83.7081   12.5530 C.3     1  UNL1        0.0546
     22 C          64.9196   83.4554   11.1570 C.3     1  UNL1        0.1437
     23 O          64.3942   82.2850   10.3797 O.3     1  UNL1       -0.3584
     24 C          63.3817   81.3674   10.9982 C.3     1  UNL1        0.0946
     25 C          62.4227   80.2241   11.1503 C.3     1  UNL1        0.0297
     26 C          63.5359   80.7177    9.6551 C.3     1  UNL1        0.0297
     27 C          62.8945   81.6201   12.3942 C.3     1  UNL1        0.0498
     28 N          62.4759   82.2091   14.1820 N.am    1  UNL1       -0.1661
     29 O          62.6132   82.5701   15.6314 O.3     1  UNL1       -0.2915
     30 C          61.3945   81.2668   13.7431 C.2     1  UNL1        0.3268
     31 O          60.4506   80.6855   14.7535 O.2     1  UNL1       -0.2627
     32 H          63.3557   83.1843   15.7428 H       1  UNL1        0.2417
@<TRIPOS>BOND
     1    12    13    1
     2    13    14   ar
     3    14    15   ar
     4    15    16   ar
     5    16    17    1
     6    16    18   ar
     7    18    11    1
     8    11    10    1
     9    10     4    1
    10     4     5    1
    11     5     6    1
    12     6     7    1
    13     7     1    1
    14     1     2    2
    15     1     3    2
    16     1    19    1
    17    19    20    1
    18    20    28    1
    19    28    29    1
    20    28    30   am
    21    30    31    2
    22    20    21    1
    23    21    22    1
    24    22    23    1
    25    23    24    1
    26    24    25    1
    27    24    26    1
    28    24    27    1
    29     7     8    1
    30     8     9    1
    31    18    13   ar
    32     9     4    1
    33    27    20    1
    34    29    32    1
@<TRIPOS>MOLECULE
*****
 32 34 0 0 0
SMALL
GASTEIGER

@<TRIPOS>ATOM
      1 S          61.9487   88.2799   11.0376 S.O2    1  UNL1        0.0455
      2 O          61.3691   89.0655    9.8989 O.2     1  UNL1       -0.1572
      3 O          62.5283   87.4943   12.1763 O.2     1  UNL1       -0.1572
      4 C          64.6112   91.7549   12.0794 C.3     1  UNL1        0.0032
      5 C          63.9875   91.6698   10.7179 C.3     1  UNL1        0.0192
      6 C          63.1000   90.5115   10.3707 C.3     1  UNL1        0.0954
      7 N          62.8362   89.4383   11.3849 N.3     1  UNL1       -0.1594
      8 C          63.4600   89.5234   12.7464 C.3     1  UNL1        0.0954
      9 C          64.3475   90.6817   13.0936 C.3     1  UNL1        0.0192
     10 C          65.4988   92.9133   12.4267 C.3     1  UNL1        0.0049
     11 C          66.8697   93.0140   11.8265 C.3     1  UNL1        0.0305
     12 C          65.9559   96.1217   11.4306 C.3     1  UNL1        0.0553
     13 C          66.6721   95.2776   10.4184 C.ar    1  UNL1        0.0966
     14 N          67.0941   95.7137    9.0467 N.ar    1  UNL1       -0.0821
     15 O          67.7750   94.5547    8.3808 O.2     1  UNL1       -0.3584
     16 C          67.7738   93.4023    9.3411 C.ar    1  UNL1        0.1504
     17 C          68.3525   92.0421    9.0867 C.3     1  UNL1        0.0750
     18 C          67.0922   93.8492   10.6004 C.ar    1  UNL1        0.0274
     19 C          61.0612   87.1217   10.6903 C.3     1  UNL1        0.1897
     20 C          61.2183   86.4256    9.3709 C.3     1  UNL1        0.1146
     21 C          62.4262   85.8999   10.0882 C.3     1  UNL1        0.0546
     22 C          63.3528   84.9447    9.3961 C.3     1  UNL1        0.1437
     23 O          63.0714   84.5152    7.9867 O.3     1  UNL1       -0.3584
     24 C          61.8635   85.0409    7.2694 C.3     1  UNL1        0.0946
     25 C          60.8559   85.2615    6.1804 C.3     1  UNL1        0.0297
     26 C          62.4402   84.1623    6.1991 C.3     1  UNL1        0.0297
     27 C          60.9370   85.9961    7.9615 C.3     1  UNL1        0.0498
     28 N          59.9558   87.1931    9.1118 N.am    1  UNL1       -0.1661
     29 O          59.0413   87.5387   10.2494 O.3     1  UNL1       -0.2915
     30 C          59.6078   87.6150    7.7150 C.2     1  UNL1        0.3268
     31 O          58.3453   88.3825    7.4560 O.2     1  UNL1       -0.2627
     32 H          59.4110   87.1945   11.0775 H       1  UNL1        0.2417
@<TRIPOS>BOND
     1    12    13    1
     2    13    14   ar
     3    14    15   ar
     4    15    16   ar
     5    16    17    1
     6    16    18   ar
     7    18    11    1
     8    11    10    1
     9    10     4    1
    10     4     5    1
    11     5     6    1
    12     6     7    1
    13     7     1    1
    14     1     2    2
    15     1     3    2
    16     1    19    1
    17    19    20    1
    18    20    28    1
    19    28    29    1
    20    28    30   am
    21    30    31    2
    22    20    21    1
    23    21    22    1
    24    22    23    1
    25    23    24    1
    26    24    25    1
    27    24    26    1
    28    24    27    1
    29     7     8    1
    30     8     9    1
    31    18    13   ar
    32     9     4    1
    33    27    20    1
    34    29    32    1
@<TRIPOS>MOLECULE
*****
 32 34 0 0 0
SMALL
GASTEIGER

@<TRIPOS>ATOM
      1 S          62.0937   87.7655   11.3372 S.O2    1  UNL1        0.0455
      2 O          63.1756   87.2584   12.2440 O.2     1  UNL1       -0.1572
      3 O          61.0118   88.2725   10.4304 O.2     1  UNL1       -0.1572
      4 C          64.1410   91.7676   11.1328 C.3     1  UNL1        0.0032
      5 C          64.1875   90.9652   12.3992 C.3     1  UNL1        0.0192
      6 C          63.5051   89.6312   12.4674 C.3     1  UNL1        0.0954
      7 N          62.7762   89.0996   11.2690 N.3     1  UNL1       -0.1594
      8 C          62.7297   89.9019   10.0025 C.3     1  UNL1        0.0954
      9 C          63.4121   91.2359    9.9344 C.3     1  UNL1        0.0192
     10 C          64.8235   93.1016   11.0646 C.3     1  UNL1        0.0049
     11 C          65.6682   93.5714   12.2116 C.3     1  UNL1        0.0305
     12 C          66.7861   93.0125   15.2261 C.3     1  UNL1        0.0553
     13 C          67.4439   92.5833   13.9483 C.ar    1  UNL1        0.0966
     14 N          68.7310   91.8219   13.8316 N.ar    1  UNL1       -0.0821
     15 O          69.0126   91.6082   12.3738 O.2     1  UNL1       -0.3584
     16 C          67.8996   92.2376   11.5895 C.ar    1  UNL1        0.1504
     17 C          67.7775   92.2603   10.0947 C.3     1  UNL1        0.0750
     18 C          66.9301   92.8402   12.5626 C.ar    1  UNL1        0.0274
     19 C          61.4113   86.4315   11.4054 C.3     1  UNL1        0.1897
     20 C          62.2251   85.1714   11.3958 C.3     1  UNL1        0.1146
     21 C          62.1460   85.4193   12.8731 C.3     1  UNL1        0.0546
     22 C          62.8101   84.4729   13.8289 C.3     1  UNL1        0.1437
     23 O          63.5531   83.2788   13.3074 O.3     1  UNL1       -0.3584
     24 C          63.6321   83.0310   11.8301 C.3     1  UNL1        0.0946
     25 C          63.9843   82.3754   10.5278 C.3     1  UNL1        0.0297
     26 C          64.4184   81.8570   12.3337 C.3     1  UNL1        0.0297
     27 C          62.9681   83.9773   10.8744 C.3     1  UNL1        0.0498
     28 N          62.0215   85.3612    9.9219 N.am    1  UNL1       -0.1661
     29 O          60.6847   85.7967    9.3993 O.3     1  UNL1       -0.2915
     30 C          63.1549   85.1155    8.9704 C.2     1  UNL1        0.3268
     31 O          62.9513   85.3053    7.4965 O.2     1  UNL1       -0.2627
     32 H          60.0692   85.9103   10.1403 H       1  UNL1        0.2417
@<TRIPOS>BOND
     1    12    13    1
     2    13    14   ar
     3    14    15   ar
     4    15    16   ar
     5    16    17    1
     6    16    18   ar
     7    18    11    1
     8    11    10    1
     9    10     4    1
    10     4     5    1
    11     5     6    1
    12     6     7    1
    13     7     1    1
    14     1     2    2
    15     1     3    2
    16     1    19    1
    17    19    20    1
    18    20    28    1
    19    28    29    1
    20    28    30   am
    21    30    31    2
    22    20    21    1
    23    21    22    1
    24    22    23    1
    25    23    24    1
    26    24    25    1
    27    24    26    1
    28    24    27    1
    29     7     8    1
    30     8     9    1
    31    18    13   ar
    32     9     4    1
    33    27    20    1
    34    29    32    1
@<TRIPOS>MOLECULE
*****
 32 34 0 0 0
SMALL
GASTEIGER

@<TRIPOS>ATOM
      1 S          61.0765   88.2219   10.6659 S.O2    1  UNL1        0.0455
      2 O          61.5127   89.1597    9.5796 O.2     1  UNL1       -0.1572
      3 O          60.6402   87.2840   11.7521 O.2     1  UNL1       -0.1572
      4 C          63.9103   90.2233   13.5318 C.3     1  UNL1        0.0032
      5 C          63.8684   88.7266   13.4408 C.3     1  UNL1        0.0192
      6 C          62.9239   88.0595   12.4855 C.3     1  UNL1        0.0954
      7 N          62.0211   88.8891   11.6212 N.3     1  UNL1       -0.1594
      8 C          62.0629   90.3857   11.7123 C.3     1  UNL1        0.0954
      9 C          63.0075   91.0528   12.6676 C.3     1  UNL1        0.0192
     10 C          64.8549   90.8904   14.4872 C.3     1  UNL1        0.0049
     11 C          65.5397   92.1665   14.0965 C.3     1  UNL1        0.0305
     12 C          68.5208   91.8357   15.3823 C.3     1  UNL1        0.0553
     13 C          68.1999   91.9698   13.9232 C.ar    1  UNL1        0.0966
     14 N          69.1929   91.9753   12.7990 N.ar    1  UNL1       -0.0821
     15 O          68.4364   92.1308   11.5131 O.2     1  UNL1       -0.3584
     16 C          66.9757   92.2213   11.8426 C.ar    1  UNL1        0.1504
     17 C          65.8576   92.3830   10.8559 C.3     1  UNL1        0.0750
     18 C          66.8297   92.1218   13.3322 C.ar    1  UNL1        0.0274
     19 C          60.1319   87.5548    9.7105 C.3     1  UNL1        0.1897
     20 C          60.6655   86.6695    8.6235 C.3     1  UNL1        0.1146
     21 C          61.6635   86.3831    9.7061 C.3     1  UNL1        0.0546
     22 C          62.7842   85.4177    9.4567 C.3     1  UNL1        0.1437
     23 O          62.9068   84.7388    8.1248 O.3     1  UNL1       -0.3584
     24 C          61.9088   85.0252    7.0422 C.3     1  UNL1        0.0946
     25 C          61.2165   84.9696    5.7127 C.3     1  UNL1        0.0297
     26 C          62.7890   84.0405    6.3312 C.3     1  UNL1        0.0297
     27 C          60.7882   85.9906    7.2916 C.3     1  UNL1        0.0498
     28 N          59.4822   87.2634    7.9185 N.am    1  UNL1       -0.1661
     29 O          58.1947   86.4979    7.8388 O.3     1  UNL1       -0.2915
     30 C          59.5864   88.6229    7.2931 C.2     1  UNL1        0.3268
     31 O          58.4031   89.2167    6.5880 O.2     1  UNL1       -0.2627
     32 H          58.2970   85.6453    8.2899 H       1  UNL1        0.2417
@<TRIPOS>BOND
     1    12    13    1
     2    13    14   ar
     3    14    15   ar
     4    15    16   ar
     5    16    17    1
     6    16    18   ar
     7    18    11    1
     8    11    10    1
     9    10     4    1
    10     4     5    1
    11     5     6    1
    12     6     7    1
    13     7     1    1
    14     1     2    2
    15     1     3    2
    16     1    19    1
    17    19    20    1
    18    20    28    1
    19    28    29    1
    20    28    30   am
    21    30    31    2
    22    20    21    1
    23    21    22    1
    24    22    23    1
    25    23    24    1
    26    24    25    1
    27    24    26    1
    28    24    27    1
    29     7     8    1
    30     8     9    1
    31    18    13   ar
    32     9     4    1
    33    27    20    1
    34    29    32    1
@<TRIPOS>MOLECULE
*****
 32 34 0 0 0
SMALL
GASTEIGER

@<TRIPOS>ATOM
      1 S          62.4281   87.4560   12.0071 S.O2    1  UNL1        0.0455
      2 O          61.3098   88.3850   11.6380 O.2     1  UNL1       -0.1572
      3 O          63.5465   86.5270   12.3762 O.2     1  UNL1       -0.1572
      4 C          64.4258   90.7723   14.3008 C.3     1  UNL1        0.0032
      5 C          63.5686   91.0930   13.1124 C.3     1  UNL1        0.0192
      6 C          62.9027   89.9875   12.3478 C.3     1  UNL1        0.0954
      7 N          63.0941   88.5614   12.7717 N.3     1  UNL1       -0.1594
      8 C          63.9513   88.2408   13.9601 C.3     1  UNL1        0.0954
      9 C          64.6171   89.3463   14.7247 C.3     1  UNL1        0.0192
     10 C          65.0917   91.8778   15.0654 C.3     1  UNL1        0.0049
     11 C          65.8938   92.9157   14.3377 C.3     1  UNL1        0.0305
     12 C          65.9793   92.6317   11.0879 C.3     1  UNL1        0.0553
     13 C          67.1219   92.3765   12.0255 C.ar    1  UNL1        0.0966
     14 N          68.5045   91.9461   11.6340 N.ar    1  UNL1       -0.0821
     15 O          69.3197   91.8106   12.8859 O.2     1  UNL1       -0.3584
     16 C          68.4409   92.1573   14.0511 C.ar    1  UNL1        0.1504
     17 C          68.8488   92.1547   15.4946 C.3     1  UNL1        0.0750
     18 C          67.0826   92.5071   13.5193 C.ar    1  UNL1        0.0274
     19 C          61.7622   86.3506   11.2425 C.3     1  UNL1        0.1897
     20 C          62.3062   84.9546   11.3156 C.3     1  UNL1        0.1146
     21 C          62.0662   85.2173   12.7728 C.3     1  UNL1        0.0546
     22 C          62.3879   84.1611   13.7882 C.3     1  UNL1        0.1437
     23 O          62.9496   82.8423   13.3464 O.3     1  UNL1       -0.3584
     24 C          63.1895   82.5796   11.8892 C.3     1  UNL1        0.0946
     25 C          63.5894   81.8638   10.6332 C.3     1  UNL1        0.0297
     26 C          63.6501   81.2749   12.4684 C.3     1  UNL1        0.0297
     27 C          62.8678   83.6358   10.8739 C.3     1  UNL1        0.0498
     28 N          62.3572   85.1767    9.8331 N.am    1  UNL1       -0.1661
     29 O          63.5683   84.7586    9.0532 O.3     1  UNL1       -0.2915
     30 C          61.1969   85.8171    9.1303 C.2     1  UNL1        0.3268
     31 O          61.2480   86.0393    7.6477 O.2     1  UNL1       -0.2627
     32 H          64.2199   84.3648    9.6543 H       1  UNL1        0.2417
@<TRIPOS>BOND
     1    12    13    1
     2    13    14   ar
     3    14    15   ar
     4    15    16   ar
     5    16    17    1
     6    16    18   ar
     7    18    11    1
     8    11    10    1
     9    10     4    1
    10     4     5    1
    11     5     6    1
    12     6     7    1
    13     7     1    1
    14     1     2    2
    15     1     3    2
    16     1    19    1
    17    19    20    1
    18    20    28    1
    19    28    29    1
    20    28    30   am
    21    30    31    2
    22    20    21    1
    23    21    22    1
    24    22    23    1
    25    23    24    1
    26    24    25    1
    27    24    26    1
    28    24    27    1
    29     7     8    1
    30     8     9    1
    31    18    13   ar
    32     9     4    1
    33    27    20    1
    34    29    32    1
@<TRIPOS>MOLECULE
*****
 32 34 0 0 0
SMALL
GASTEIGER

@<TRIPOS>ATOM
      1 S          62.8838   87.6467   12.8455 S.O2    1  UNL1        0.0455
      2 O          61.7886   87.9461   11.8654 O.2     1  UNL1       -0.1572
      3 O          63.9791   87.3473   13.8257 O.2     1  UNL1       -0.1572
      4 C          64.6103   91.7468   12.1683 C.3     1  UNL1        0.0032
      5 C          63.7355   91.1195   11.1238 C.3     1  UNL1        0.0192
      6 C          63.1600   89.7528   11.3495 C.3     1  UNL1        0.0954
      7 N          63.4594   89.0134   12.6198 N.3     1  UNL1       -0.1594
      8 C          64.3342   89.6407   13.6644 C.3     1  UNL1        0.0954
      9 C          64.9097   91.0074   13.4386 C.3     1  UNL1        0.0192
     10 C          65.1858   93.1135   11.9426 C.3     1  UNL1        0.0049
     11 C          66.6399   93.2692   11.6088 C.3     1  UNL1        0.0305
     12 C          65.9566   96.4449   11.2970 C.3     1  UNL1        0.0553
     13 C          66.7437   95.6132   10.3282 C.ar    1  UNL1        0.0966
     14 N          67.3550   96.0952    9.0460 N.ar    1  UNL1       -0.0821
     15 O          68.0469   94.9333    8.3968 O.2     1  UNL1       -0.3584
     16 C          67.8632   93.7332    9.2779 C.ar    1  UNL1        0.1504
     17 C          68.3921   92.3550    9.0120 C.3     1  UNL1        0.0750
     18 C          67.0578   94.1535   10.4715 C.ar    1  UNL1        0.0274
     19 C          62.3083   86.2800   13.0712 C.3     1  UNL1        0.1897
     20 C          62.9577   85.0804   12.4475 C.3     1  UNL1        0.1146
     21 C          62.4740   85.7851   11.2149 C.3     1  UNL1        0.0546
     22 C          62.7293   85.1900    9.8618 C.3     1  UNL1        0.1437
     23 O          63.4684   83.8903    9.7414 O.3     1  UNL1       -0.3584
     24 C          63.9522   83.1856   10.9741 C.3     1  UNL1        0.0946
     25 C          64.6032   82.1493   11.8414 C.3     1  UNL1        0.0297
     26 C          64.4336   82.2308    9.9222 C.3     1  UNL1        0.0297
     27 C          63.6968   83.7807   12.3270 C.3     1  UNL1        0.0498
     28 N          63.2160   84.7924   13.8967 N.am    1  UNL1       -0.1661
     29 O          64.6209   84.7890   14.4221 O.3     1  UNL1       -0.2915
     30 C          62.0691   84.5077   14.8207 C.2     1  UNL1        0.3268
     31 O          62.3273   84.2197   16.2700 O.2     1  UNL1       -0.2627
     32 H          65.2366   84.9898   13.7000 H       1  UNL1        0.2417
@<TRIPOS>BOND
     1    12    13    1
     2    13    14   ar
     3    14    15   ar
     4    15    16   ar
     5    16    17    1
     6    16    18   ar
     7    18    11    1
     8    11    10    1
     9    10     4    1
    10     4     5    1
    11     5     6    1
    12     6     7    1
    13     7     1    1
    14     1     2    2
    15     1     3    2
    16     1    19    1
    17    19    20    1
    18    20    28    1
    19    28    29    1
    20    28    30   am
    21    30    31    2
    22    20    21    1
    23    21    22    1
    24    22    23    1
    25    23    24    1
    26    24    25    1
    27    24    26    1
    28    24    27    1
    29     7     8    1
    30     8     9    1
    31    18    13   ar
    32     9     4    1
    33    27    20    1
    34    29    32    1
