@<TRIPOS>MOLECULE
*****
 29 32 0 0 0
SMALL
GASTEIGER

@<TRIPOS>ATOM
      1 C          63.0801   90.5834   10.8594 C.3     1  UNL1        0.1406
      2 C          63.4694   90.4378   12.3006 C.3     1  UNL1        0.0375
      3 C          64.5535   91.3006   12.8754 C.3     1  UNL1        0.0430
      4 C          64.9429   91.1550   14.3167 C.3     1  UNL1        0.0921
      5 S          66.0269   92.0178   14.8915 S.3     1  UNL1       -0.0787
      6 C          66.7216   93.0261   14.0251 C.2     1  UNL1        0.1483
      7 N          67.8057   93.8889   14.5999 N.pl3   1  UNL1       -0.3380
      8 N          66.3323   93.1717   12.5838 N.2     1  UNL1       -0.2484
      9 C          65.2482   92.3089   12.0090 C.3     1  UNL1        0.1352
     10 C          64.8588   92.4544   10.5677 C.3     1  UNL1        0.1690
     11 O          63.7748   91.5917    9.9929 O.3     1  UNL1       -0.3494
     12 H          68.0613   93.7933   15.5459 H       1  UNL1        0.1442
     13 H          68.2617   94.5507   14.0313 H       1  UNL1        0.1442
     14 C          65.9429   93.3172   11.1425 C.ar    1  UNL1        0.0278
     15 C          65.4234   94.7221   11.0626 C.ar    1  UNL1        0.0021
     16 C          66.1181   95.7304   10.1962 C.ar    1  UNL1        0.0295
     17 C          67.3323   95.3338    9.4097 C.ar    1  UNL1        0.1424
     18 F          68.0270   96.3421    8.5433 F       1  UNL1       -0.2041
     19 C          67.8517   93.9289    9.4897 C.ar    1  UNL1        0.0590
     20 C          67.1570   92.9206   10.3561 C.ar    1  UNL1        0.1402
     21 F          67.6765   91.5157   10.4361 F       1  UNL1       -0.2044
     22 C          60.4947   86.4442    8.8434 C.3     1  UNL1        0.1537
     23 N          60.8076   87.8180    9.3578 N.ar    1  UNL1       -0.2476
     24 C          62.1352   88.2832    9.8786 C.ar    1  UNL1        0.0947
     25 C          61.9960   89.7206   10.2845 C.ar    1  UNL1        0.0442
     26 C          60.5824   90.1437   10.0145 C.ar    1  UNL1        0.1197
     27 N          59.8480   88.9678    9.4419 N.ar    1  UNL1       -0.1679
     28 C          64.2482   90.1467   15.1831 C.3     1  UNL1        0.2044
     29 F          64.4618   88.6809   14.9470 F       1  UNL1       -0.2334
@<TRIPOS>BOND
     1    22    23    1
     2    23    24   ar
     3    24    25   ar
     4     1    25    1
     5     1     2    1
     6     3     2    1
     7     3     4    1
     8     4    28    1
     9    28    29    1
    10     4     5    1
    11     5     6    1
    12     6     7    1
    13     6     8    2
    14     8     9    1
    15     9    14    1
    16    14    15   ar
    17    15    16   ar
    18    16    17   ar
    19    17    18    1
    20    17    19   ar
    21    19    20   ar
    22    20    21    1
    23     9    10    1
    24    10    11    1
    25    25    26   ar
    26    26    27   ar
    27    27    23   ar
    28    11     1    1
    29     9     3    1
    30    20    14   ar
    31     7    12    1
    32     7    13    1
@<TRIPOS>MOLECULE
*****
 29 32 0 0 0
SMALL
GASTEIGER

@<TRIPOS>ATOM
      1 C          61.4029   86.6956   10.2192 C.3     1  UNL1        0.1406
      2 C          62.0718   87.7261   11.0797 C.3     1  UNL1        0.0375
      3 C          62.8757   87.3001   12.2722 C.3     1  UNL1        0.0430
      4 C          63.5447   88.3307   13.1328 C.3     1  UNL1        0.0921
      5 S          64.3486   87.9047   14.3253 S.3     1  UNL1       -0.0787
      6 C          64.4836   86.4482   14.6574 C.2     1  UNL1        0.1483
      7 N          65.2875   86.0222   15.8501 N.pl3   1  UNL1       -0.3380
      8 N          63.8146   85.4176   13.7970 N.2     1  UNL1       -0.2484
      9 C          63.0107   85.8436   12.6043 C.3     1  UNL1        0.1352
     10 C          62.3417   84.8130   11.7439 C.3     1  UNL1        0.1690
     11 O          61.5379   85.2390   10.5513 O.3     1  UNL1       -0.3494
     12 H          65.7266   86.6986   16.4148 H       1  UNL1        0.1442
     13 H          65.3761   85.0663   16.0681 H       1  UNL1        0.1442
     14 C          63.1456   84.3871   12.9364 C.ar    1  UNL1        0.0278
     15 C          64.0815   83.5212   12.1462 C.ar    1  UNL1        0.0021
     16 C          64.2165   82.0647   12.4783 C.ar    1  UNL1        0.0295
     17 C          63.4155   81.4740   13.6006 C.ar    1  UNL1        0.1424
     18 F          63.5505   80.0174   13.9327 F       1  UNL1       -0.2041
     19 C          62.4797   82.3398   14.3909 C.ar    1  UNL1        0.0590
     20 C          62.3447   83.7964   14.0587 C.ar    1  UNL1        0.1402
     21 F          61.4089   84.6622   14.8490 F       1  UNL1       -0.2044
     22 C          59.0386   89.6842    6.5641 C.3     1  UNL1        0.1537
     23 N          59.5122   88.4953    7.3465 N.ar    1  UNL1       -0.2476
     24 C          60.3697   88.5340    8.5766 C.ar    1  UNL1        0.0947
     25 C          60.5990   87.1215    9.0266 C.ar    1  UNL1        0.0442
     26 C          59.8831   86.2098    8.0745 C.ar    1  UNL1        0.1197
     27 N          59.2115   87.0588    7.0362 N.ar    1  UNL1       -0.1679
     28 C          63.4098   89.7872   12.8007 C.3     1  UNL1        0.2044
     29 F          64.6033   90.6911   12.8922 F       1  UNL1       -0.2334
@<TRIPOS>BOND
     1    22    23    1
     2    23    24   ar
     3    24    25   ar
     4     1    25    1
     5     1     2    1
     6     3     2    1
     7     3     4    1
     8     4    28    1
     9    28    29    1
    10     4     5    1
    11     5     6    1
    12     6     7    1
    13     6     8    2
    14     8     9    1
    15     9    14    1
    16    14    15   ar
    17    15    16   ar
    18    16    17   ar
    19    17    18    1
    20    17    19   ar
    21    19    20   ar
    22    20    21    1
    23     9    10    1
    24    10    11    1
    25    25    26   ar
    26    26    27   ar
    27    27    23   ar
    28    11     1    1
    29     9     3    1
    30    20    14   ar
    31     7    12    1
    32     7    13    1
@<TRIPOS>MOLECULE
*****
 29 32 0 0 0
SMALL
GASTEIGER

@<TRIPOS>ATOM
      1 C          63.1043   88.9884   12.8611 C.3     1  UNL1        0.1406
      2 C          62.0563   89.4677   11.9010 C.3     1  UNL1        0.0375
      3 C          61.4811   88.5245   10.8864 C.3     1  UNL1        0.0430
      4 C          60.4330   89.0038    9.9262 C.3     1  UNL1        0.0921
      5 S          59.8578   88.0606    8.9116 S.3     1  UNL1       -0.0787
      6 C          60.3305   86.6381    8.8572 C.2     1  UNL1        0.1483
      7 N          59.7551   85.6949    7.8426 N.pl3   1  UNL1       -0.3380
      8 N          61.3785   86.1588    9.8174 N.2     1  UNL1       -0.2484
      9 C          61.9538   87.1020   10.8320 C.3     1  UNL1        0.1352
     10 C          63.0018   86.6227   11.7921 C.3     1  UNL1        0.1690
     11 O          63.5770   87.5659   12.8067 O.3     1  UNL1       -0.3494
     12 H          59.0673   86.0095    7.2124 H       1  UNL1        0.1442
     13 H          60.0654   84.7612    7.8068 H       1  UNL1        0.1442
     14 C          62.4265   85.6795   10.7776 C.ar    1  UNL1        0.0278
     15 C          62.1351   84.7482   11.9169 C.ar    1  UNL1        0.0021
     16 C          62.6078   83.3257   11.8624 C.ar    1  UNL1        0.0295
     17 C          63.3719   82.8344   10.6687 C.ar    1  UNL1        0.1424
     18 F          63.8447   81.4119   10.6143 F       1  UNL1       -0.2041
     19 C          63.6633   83.7657    9.5295 C.ar    1  UNL1        0.0590
     20 C          63.1906   85.1882    9.5840 C.ar    1  UNL1        0.1402
     21 F          63.4820   86.1195    8.4448 F       1  UNL1       -0.2044
     22 C          66.1989   92.5703   15.2009 C.3     1  UNL1        0.1537
     23 N          65.1021   91.5781   14.9512 N.ar    1  UNL1       -0.2476
     24 C          64.8869   90.8015   13.6860 C.ar    1  UNL1        0.0947
     25 C          63.6797   89.9316   13.8758 C.ar    1  UNL1        0.0442
     26 C          63.1488   90.1705   15.2582 C.ar    1  UNL1        0.1197
     27 N          64.0279   91.1881   15.9229 N.ar    1  UNL1       -0.1679
     28 C          59.9603   90.4264    9.9806 C.3     1  UNL1        0.2044
     29 F          59.1490   90.9029   11.1488 F       1  UNL1       -0.2334
@<TRIPOS>BOND
     1    22    23    1
     2    23    24   ar
     3    24    25   ar
     4     1    25    1
     5     1     2    1
     6     3     2    1
     7     3     4    1
     8     4    28    1
     9    28    29    1
    10     4     5    1
    11     5     6    1
    12     6     7    1
    13     6     8    2
    14     8     9    1
    15     9    14    1
    16    14    15   ar
    17    15    16   ar
    18    16    17   ar
    19    17    18    1
    20    17    19   ar
    21    19    20   ar
    22    20    21    1
    23     9    10    1
    24    10    11    1
    25    25    26   ar
    26    26    27   ar
    27    27    23   ar
    28    11     1    1
    29     9     3    1
    30    20    14   ar
    31     7    12    1
    32     7    13    1
@<TRIPOS>MOLECULE
*****
 29 32 0 0 0
SMALL
GASTEIGER

@<TRIPOS>ATOM
      1 C          63.9209   88.8922   13.4247 C.3     1  UNL1        0.1406
      2 C          64.1228   87.6151   14.1851 C.3     1  UNL1        0.0375
      3 C          63.6407   86.3160   13.6105 C.3     1  UNL1        0.0430
      4 C          63.8426   85.0388   14.3709 C.3     1  UNL1        0.0921
      5 S          63.3606   83.7398   13.7964 S.3     1  UNL1       -0.0787
      6 C          62.6767   83.7179   12.4615 C.2     1  UNL1        0.1483
      7 N          62.1946   82.4187   11.8870 N.pl3   1  UNL1       -0.3380
      8 N          62.4748   84.9950   11.7012 N.2     1  UNL1       -0.2484
      9 C          62.9568   86.2941   12.2757 C.3     1  UNL1        0.1352
     10 C          62.7549   87.5713   11.5154 C.3     1  UNL1        0.1690
     11 O          63.2370   88.8703   12.0899 O.3     1  UNL1       -0.3494
     12 H          62.3272   81.5805   12.3860 H       1  UNL1        0.1442
     13 H          61.7458   82.4043   11.0109 H       1  UNL1        0.1442
     14 C          62.2729   86.2722   10.9409 C.ar    1  UNL1        0.0278
     15 C          62.9688   85.6800    9.7512 C.ar    1  UNL1        0.0021
     16 C          62.2849   85.6581    8.4164 C.ar    1  UNL1        0.0295
     17 C          60.9051   86.2284    8.2712 C.ar    1  UNL1        0.1424
     18 F          60.2212   86.2065    6.9364 F       1  UNL1       -0.2041
     19 C          60.2093   86.8206    9.4608 C.ar    1  UNL1        0.0590
     20 C          60.8932   86.8425   10.7956 C.ar    1  UNL1        0.1402
     21 F          60.1974   87.4346   11.9852 F       1  UNL1       -0.2044
     22 C          66.4574   93.4843   14.0244 C.3     1  UNL1        0.1537
     23 N          65.5689   92.3021   14.2748 N.ar    1  UNL1       -0.2476
     24 C          65.3725   91.1356   13.3525 C.ar    1  UNL1        0.0947
     25 C          64.4029   90.1913   13.9993 C.ar    1  UNL1        0.0442
     26 C          64.0000   90.7742   15.3213 C.ar    1  UNL1        0.1197
     27 N          64.7205   92.0787   15.4917 N.ar    1  UNL1       -0.1679
     28 C          64.5265   85.0607   15.7057 C.3     1  UNL1        0.2044
     29 F          63.8827   85.7586   16.8669 F       1  UNL1       -0.2334
@<TRIPOS>BOND
     1    22    23    1
     2    23    24   ar
     3    24    25   ar
     4     1    25    1
     5     1     2    1
     6     3     2    1
     7     3     4    1
     8     4    28    1
     9    28    29    1
    10     4     5    1
    11     5     6    1
    12     6     7    1
    13     6     8    2
    14     8     9    1
    15     9    14    1
    16    14    15   ar
    17    15    16   ar
    18    16    17   ar
    19    17    18    1
    20    17    19   ar
    21    19    20   ar
    22    20    21    1
    23     9    10    1
    24    10    11    1
    25    25    26   ar
    26    26    27   ar
    27    27    23   ar
    28    11     1    1
    29     9     3    1
    30    20    14   ar
    31     7    12    1
    32     7    13    1
@<TRIPOS>MOLECULE
*****
 29 32 0 0 0
SMALL
GASTEIGER

@<TRIPOS>ATOM
      1 C          61.8986   86.8243   10.8581 C.3     1  UNL1        0.1406
      2 C          62.6775   87.2396   12.0708 C.3     1  UNL1        0.0375
      3 C          63.3189   86.2008   12.9422 C.3     1  UNL1        0.0430
      4 C          64.0979   86.6161   14.1550 C.3     1  UNL1        0.0921
      5 S          64.7393   85.5773   15.0264 S.3     1  UNL1       -0.0787
      6 C          64.6018   84.1231   14.6851 C.2     1  UNL1        0.1483
      7 N          65.2432   83.0842   15.5565 N.pl3   1  UNL1       -0.3380
      8 N          63.8228   83.7078   13.4724 N.2     1  UNL1       -0.2484
      9 C          63.1814   84.7466   12.6009 C.3     1  UNL1        0.1352
     10 C          62.4024   84.3313   11.3882 C.3     1  UNL1        0.1690
     11 O          61.7610   85.3701   10.5168 O.3     1  UNL1       -0.3494
     12 H          65.7545   83.3568   16.3525 H       1  UNL1        0.1442
     13 H          65.1530   82.1298   15.3325 H       1  UNL1        0.1442
     14 C          63.0438   83.2925   12.2596 C.ar    1  UNL1        0.0278
     15 C          62.1853   82.4011   13.1073 C.ar    1  UNL1        0.0021
     16 C          62.0478   80.9469   12.7660 C.ar    1  UNL1        0.0295
     17 C          62.7687   80.3841   11.5770 C.ar    1  UNL1        0.1424
     18 F          62.6311   78.9300   11.2357 F       1  UNL1       -0.2041
     19 C          63.6271   81.2755   10.7294 C.ar    1  UNL1        0.0590
     20 C          63.7647   82.7297   11.0707 C.ar    1  UNL1        0.1402
     21 F          64.6231   83.6211   10.2231 F       1  UNL1       -0.2044
     22 C          59.2498   89.1342    6.9174 C.3     1  UNL1        0.1537
     23 N          60.0396   88.9249    8.1753 N.ar    1  UNL1       -0.2476
     24 C          60.5072   87.6051    8.7134 C.ar    1  UNL1        0.0947
     25 C          61.2571   87.8632    9.9867 C.ar    1  UNL1        0.0442
     26 C          61.2529   89.3424   10.2354 C.ar    1  UNL1        0.1197
     27 N          60.5004   89.9986    9.1160 N.ar    1  UNL1       -0.1679
     28 C          64.2355   88.0703   14.4963 C.3     1  UNL1        0.2044
     29 F          63.7338   88.5821   15.8140 F       1  UNL1       -0.2334
@<TRIPOS>BOND
     1    22    23    1
     2    23    24   ar
     3    24    25   ar
     4     1    25    1
     5     1     2    1
     6     3     2    1
     7     3     4    1
     8     4    28    1
     9    28    29    1
    10     4     5    1
    11     5     6    1
    12     6     7    1
    13     6     8    2
    14     8     9    1
    15     9    14    1
    16    14    15   ar
    17    15    16   ar
    18    16    17   ar
    19    17    18    1
    20    17    19   ar
    21    19    20   ar
    22    20    21    1
    23     9    10    1
    24    10    11    1
    25    25    26   ar
    26    26    27   ar
    27    27    23   ar
    28    11     1    1
    29     9     3    1
    30    20    14   ar
    31     7    12    1
    32     7    13    1
@<TRIPOS>MOLECULE
*****
 29 32 0 0 0
SMALL
GASTEIGER

@<TRIPOS>ATOM
      1 C          59.2081   93.5597   -1.2942 C.3     1  UNL1        0.1406
      2 C          59.8277   93.2586    0.0382 C.3     1  UNL1        0.0375
      3 C          61.3200   93.2639    0.1897 C.3     1  UNL1        0.0430
      4 C          61.9397   92.9629    1.5222 C.3     1  UNL1        0.0921
      5 S          63.4320   92.9682    1.6737 S.3     1  UNL1       -0.0787
      6 C          64.3047   93.2745    0.4928 C.2     1  UNL1        0.1483
      7 N          65.7970   93.2798    0.6443 N.pl3   1  UNL1       -0.3380
      8 N          63.6850   93.5756   -0.8396 N.2     1  UNL1       -0.2484
      9 C          62.1927   93.5703   -0.9912 C.3     1  UNL1        0.1352
     10 C          61.5730   93.8714   -2.3236 C.3     1  UNL1        0.1690
     11 O          60.0808   93.8661   -2.4751 O.3     1  UNL1       -0.3494
     12 H          66.2037   93.0822    1.5189 H       1  UNL1        0.1442
     13 H          66.3698   93.4809   -0.1308 H       1  UNL1        0.1442
     14 C          63.0653   93.8767   -2.1721 C.ar    1  UNL1        0.0278
     15 C          63.4694   92.7788   -3.1110 C.ar    1  UNL1        0.0021
     16 C          64.3420   93.0851   -4.2919 C.ar    1  UNL1        0.0295
     17 C          64.8107   94.4894   -4.5340 C.ar    1  UNL1        0.1424
     18 F          65.6833   94.7958   -5.7149 F       1  UNL1       -0.2041
     19 C          64.4066   95.5872   -3.5951 C.ar    1  UNL1        0.0590
     20 C          63.5340   95.2808   -2.4142 C.ar    1  UNL1        0.1402
     21 F          63.1299   96.3786   -1.4753 F       1  UNL1       -0.2044
     22 C          54.2073   95.1737   -1.8119 C.3     1  UNL1        0.1537
     23 N          55.4171   94.2963   -1.6837 N.ar    1  UNL1       -0.2476
     24 C          56.8350   94.7648   -1.5425 C.ar    1  UNL1        0.0947
     25 C          57.7157   93.5544   -1.4457 C.ar    1  UNL1        0.0442
     26 C          56.8421   92.3378   -1.5270 C.ar    1  UNL1        0.1197
     27 N          55.4215   92.7963   -1.6741 N.ar    1  UNL1       -0.1679
     28 C          61.0670   92.6565    2.7031 C.3     1  UNL1        0.2044
     29 F          60.1482   93.7086    3.2497 F       1  UNL1       -0.2334
@<TRIPOS>BOND
     1    22    23    1
     2    23    24   ar
     3    24    25   ar
     4     1    25    1
     5     1     2    1
     6     3     2    1
     7     3     4    1
     8     4    28    1
     9    28    29    1
    10     4     5    1
    11     5     6    1
    12     6     7    1
    13     6     8    2
    14     8     9    1
    15     9    14    1
    16    14    15   ar
    17    15    16   ar
    18    16    17   ar
    19    17    18    1
    20    17    19   ar
    21    19    20   ar
    22    20    21    1
    23     9    10    1
    24    10    11    1
    25    25    26   ar
    26    26    27   ar
    27    27    23   ar
    28    11     1    1
    29     9     3    1
    30    20    14   ar
    31     7    12    1
    32     7    13    1
@<TRIPOS>MOLECULE
*****
 29 32 0 0 0
SMALL
GASTEIGER

@<TRIPOS>ATOM
      1 C          64.2956   88.3324   14.3963 C.3     1  UNL1        0.1406
      2 C          63.6948   88.9293   13.1583 C.3     1  UNL1        0.0375
      3 C          64.1713   90.2617   12.6608 C.3     1  UNL1        0.0430
      4 C          63.5705   90.8586   11.4227 C.3     1  UNL1        0.0921
      5 S          64.0470   92.1910   10.9252 S.3     1  UNL1       -0.0787
      6 C          65.1243   92.9266   11.6658 C.2     1  UNL1        0.1483
      7 N          65.6007   94.2591   11.1682 N.pl3   1  UNL1       -0.3380
      8 N          65.7251   92.3298   12.9038 N.2     1  UNL1       -0.2484
      9 C          65.2486   90.9973   13.4013 C.3     1  UNL1        0.1352
     10 C          65.8494   90.4004   14.6394 C.3     1  UNL1        0.1690
     11 O          65.3729   89.0680   15.1369 O.3     1  UNL1       -0.3494
     12 H          65.2064   94.6509   10.3556 H       1  UNL1        0.1442
     13 H          66.3078   94.7419   11.6542 H       1  UNL1        0.1442
     14 C          66.3258   91.7329   14.1419 C.ar    1  UNL1        0.0278
     15 C          67.7218   91.7694   13.5941 C.ar    1  UNL1        0.0021
     16 C          68.7991   92.5049   14.3346 C.ar    1  UNL1        0.0295
     17 C          68.4804   93.2040   15.6230 C.ar    1  UNL1        0.1424
     18 F          69.5576   93.9396   16.3635 F       1  UNL1       -0.2041
     19 C          67.0845   93.1675   16.1707 C.ar    1  UNL1        0.0590
     20 C          66.0072   92.4319   15.4302 C.ar    1  UNL1        0.1402
     21 F          64.6113   92.3954   15.9779 F       1  UNL1       -0.2044
     22 C          63.0065   83.2159   14.5994 C.3     1  UNL1        0.1537
     23 N          63.2266   84.6481   14.9872 N.ar    1  UNL1       -0.2476
     24 C          63.7667   85.7292   14.0986 C.ar    1  UNL1        0.0947
     25 C          63.8191   86.9999   14.8939 C.ar    1  UNL1        0.0442
     26 C          63.3115   86.7042   16.2740 C.ar    1  UNL1        0.1197
     27 N          62.9453   85.2508   16.3317 N.ar    1  UNL1       -0.1679
     28 C          62.4933   90.1230   10.6821 C.3     1  UNL1        0.2044
     29 F          62.8132   88.8425    9.9695 F       1  UNL1       -0.2334
@<TRIPOS>BOND
     1    22    23    1
     2    23    24   ar
     3    24    25   ar
     4     1    25    1
     5     1     2    1
     6     3     2    1
     7     3     4    1
     8     4    28    1
     9    28    29    1
    10     4     5    1
    11     5     6    1
    12     6     7    1
    13     6     8    2
    14     8     9    1
    15     9    14    1
    16    14    15   ar
    17    15    16   ar
    18    16    17   ar
    19    17    18    1
    20    17    19   ar
    21    19    20   ar
    22    20    21    1
    23     9    10    1
    24    10    11    1
    25    25    26   ar
    26    26    27   ar
    27    27    23   ar
    28    11     1    1
    29     9     3    1
    30    20    14   ar
    31     7    12    1
    32     7    13    1
@<TRIPOS>MOLECULE
*****
 29 32 0 0 0
SMALL
GASTEIGER

@<TRIPOS>ATOM
      1 C          64.3157   90.0378   14.0699 C.3     1  UNL1        0.1406
      2 C          64.5012   88.5897   14.4143 C.3     1  UNL1        0.0375
      3 C          63.8256   87.5312   13.5938 C.3     1  UNL1        0.0430
      4 C          64.0111   86.0831   13.9382 C.3     1  UNL1        0.0921
      5 S          63.3356   85.0246   13.1177 S.3     1  UNL1       -0.0787
      6 C          62.4745   85.4141   11.9529 C.2     1  UNL1        0.1483
      7 N          61.7989   84.3556   11.1325 N.pl3   1  UNL1       -0.3380
      8 N          62.2890   86.8622   11.6085 N.2     1  UNL1       -0.2484
      9 C          62.9646   87.9208   12.4290 C.3     1  UNL1        0.1352
     10 C          62.7791   89.3689   12.0846 C.3     1  UNL1        0.1690
     11 O          63.4547   90.4273   12.9050 O.3     1  UNL1       -0.3494
     12 H          61.9207   83.4051   11.3585 H       1  UNL1        0.1442
     13 H          61.2338   84.6112   10.3679 H       1  UNL1        0.1442
     14 C          62.1035   88.3104   11.2642 C.ar    1  UNL1        0.0278
     15 C          62.4860   87.8913    9.8755 C.ar    1  UNL1        0.0021
     16 C          61.6249   88.2809    8.7107 C.ar    1  UNL1        0.0295
     17 C          60.3815   89.0895    8.9345 C.ar    1  UNL1        0.1424
     18 F          59.5204   89.4791    7.7697 F       1  UNL1       -0.2041
     19 C          59.9991   89.5085   10.3231 C.ar    1  UNL1        0.0590
     20 C          60.8601   89.1189   11.4879 C.ar    1  UNL1        0.1402
     21 F          60.4778   89.5379   12.8765 F       1  UNL1       -0.2044
     22 C          67.8634   93.5387   15.8131 C.3     1  UNL1        0.1537
     23 N          66.6220   92.7055   15.6916 N.ar    1  UNL1       -0.2476
     24 C          66.3448   91.6866   14.6263 C.ar    1  UNL1        0.0947
     25 C          64.9913   91.0964   14.8903 C.ar    1  UNL1        0.0442
     26 C          64.4320   91.7506   16.1188 C.ar    1  UNL1        0.1197
     27 N          65.4398   92.7451   16.6140 N.ar    1  UNL1       -0.1679
     28 C          64.8722   85.6935   15.1030 C.3     1  UNL1        0.2044
     29 F          66.3644   85.8093   15.0045 F       1  UNL1       -0.2334
@<TRIPOS>BOND
     1    22    23    1
     2    23    24   ar
     3    24    25   ar
     4     1    25    1
     5     1     2    1
     6     3     2    1
     7     3     4    1
     8     4    28    1
     9    28    29    1
    10     4     5    1
    11     5     6    1
    12     6     7    1
    13     6     8    2
    14     8     9    1
    15     9    14    1
    16    14    15   ar
    17    15    16   ar
    18    16    17   ar
    19    17    18    1
    20    17    19   ar
    21    19    20   ar
    22    20    21    1
    23     9    10    1
    24    10    11    1
    25    25    26   ar
    26    26    27   ar
    27    27    23   ar
    28    11     1    1
    29     9     3    1
    30    20    14   ar
    31     7    12    1
    32     7    13    1
