@<TRIPOS>MOLECULE
*****
 34 38 0 0 0
SMALL
GASTEIGER

@<TRIPOS>ATOM
      1 C          63.0490   86.5943   12.4804 C.2     1  UNL1        0.2506
      2 O          63.5933   87.4627   13.5757 O.2     1  UNL1       -0.2699
      3 N          62.1968   87.1939   11.4014 N.am    1  UNL1       -0.2724
      4 C          61.6526   86.3255   10.3061 C.3     1  UNL1        0.1231
      5 C          60.8003   86.9251    9.2270 C.3     1  UNL1        0.1351
      6 C          60.2561   86.0567    8.1317 C.3     1  UNL1        0.0339
      7 O          60.4924   88.3930    9.2434 O.3     1  UNL1       -0.3527
      8 C          61.0366   89.2614   10.3387 C.3     1  UNL1        0.1621
      9 C          61.8888   88.6619   11.4176 C.3     1  UNL1        0.1097
     10 C          64.2121   82.2693    9.8456 C.3     1  UNL1        0.0310
     11 C          63.9385   82.9639   11.1467 C.ar    1  UNL1       -0.0216
     12 C          63.9729   82.1905   12.4314 C.ar    1  UNL1       -0.0026
     13 C          63.6993   82.8850   13.7325 C.ar    1  UNL1        0.0207
     14 C          63.3914   84.3529   13.7488 C.ar    1  UNL1        0.1072
     15 C          63.3570   85.1263   12.4641 C.ar    1  UNL1        0.0726
     16 C          63.6306   84.4318   11.1630 C.ar    1  UNL1        0.0018
     17 N          63.1178   85.0474   15.0499 N.ar    1  UNL1       -0.1477
     18 N          61.8040   85.0795   15.7731 N.ar    1  UNL1       -0.1447
     19 C          61.9842   85.8837   17.0264 C.ar    1  UNL1        0.1446
     20 C          63.4094   86.3487   17.0778 C.ar    1  UNL1        0.1446
     21 N          64.1100   85.8319   15.8563 N.ar    1  UNL1       -0.1447
     22 C          62.4331   89.5303   12.5130 C.3     1  UNL1        0.0510
     23 C          63.5096   90.5306   12.2121 C.ar    1  UNL1        0.0086
     24 C          64.5110   90.8949   13.2677 C.ar    1  UNL1        0.0189
     25 C          65.5876   91.8953   12.9669 C.ar    1  UNL1        0.1027
     26 C          65.6626   92.5312   11.6104 C.ar    1  UNL1        0.0232
     27 C          64.6611   92.1668   10.5548 C.ar    1  UNL1        0.0309
     28 C          63.5846   91.1665   10.8557 C.ar    1  UNL1        0.1363
     29 F          62.5832   90.8021    9.8001 F       1  UNL1       -0.2045
     30 N          66.5890   92.2596   14.0225 N.ar    1  UNL1       -0.1478
     31 N          66.2761   92.6627   15.4330 N.ar    1  UNL1       -0.1447
     32 C          67.5728   92.9371   16.1352 C.ar    1  UNL1        0.1446
     33 C          68.6873   92.7035   15.1587 C.ar    1  UNL1        0.1446
     34 N          68.0792   92.2848   13.8529 N.ar    1  UNL1       -0.1447
@<TRIPOS>BOND
     1    10    11    1
     2    11    12   ar
     3    12    13   ar
     4    13    14   ar
     5    14    17    1
     6    17    18   ar
     7    18    19   ar
     8    19    20   ar
     9    20    21   ar
    10    14    15   ar
    11    15     1    1
    12     1     2    2
    13     1     3   am
    14     3     4    1
    15     4     5    1
    16     5     6    1
    17     5     7    1
    18     7     8    1
    19     8     9    1
    20     9    22    1
    21    22    23    1
    22    23    24   ar
    23    24    25   ar
    24    25    30    1
    25    30    31   ar
    26    31    32   ar
    27    32    33   ar
    28    33    34   ar
    29    25    26   ar
    30    26    27   ar
    31    27    28   ar
    32    28    29    1
    33    15    16   ar
    34    16    11   ar
    35    21    17   ar
    36     9     3    1
    37    28    23   ar
    38    34    30   ar
@<TRIPOS>MOLECULE
*****
 34 38 0 0 0
SMALL
GASTEIGER

@<TRIPOS>ATOM
      1 C          62.7487   87.2198   11.8011 C.2     1  UNL1        0.2506
      2 O          63.4021   87.3533   13.1447 O.2     1  UNL1       -0.2699
      3 N          61.9365   88.3522   11.2462 N.am    1  UNL1       -0.2724
      4 C          61.2831   88.2186    9.9027 C.3     1  UNL1        0.1231
      5 C          60.4708   89.3511    9.3478 C.3     1  UNL1        0.1351
      6 C          59.8174   89.2175    8.0042 C.3     1  UNL1        0.0339
      7 O          60.3120   90.6170   10.1365 O.3     1  UNL1       -0.3527
      8 C          60.9654   90.7506   11.4801 C.3     1  UNL1        0.1621
      9 C          61.7777   89.6182   12.0349 C.3     1  UNL1        0.1097
     10 C          62.8325   84.7441    7.2334 C.3     1  UNL1        0.0310
     11 C          62.9494   84.7160    8.7285 C.ar    1  UNL1       -0.0216
     12 C          63.2251   83.4218    9.4350 C.ar    1  UNL1       -0.0026
     13 C          63.3421   83.3936   10.9302 C.ar    1  UNL1        0.0207
     14 C          63.1833   84.6596   11.7189 C.ar    1  UNL1        0.1072
     15 C          62.9075   85.9537   11.0124 C.ar    1  UNL1        0.0726
     16 C          62.7906   85.9819    9.5172 C.ar    1  UNL1        0.0018
     17 N          63.3002   84.6314   13.2140 N.ar    1  UNL1       -0.1477
     18 N          64.5784   84.6429   13.9988 N.ar    1  UNL1       -0.1447
     19 C          64.2276   84.6054   15.4568 C.ar    1  UNL1        0.1446
     20 C          62.7326   84.5707   15.5730 C.ar    1  UNL1        0.1446
     21 N          62.1594   84.5868   14.1870 N.ar    1  UNL1       -0.1447
     22 C          62.4311   89.7518   13.3785 C.3     1  UNL1        0.0510
     23 C          63.6396   90.6253   13.5413 C.ar    1  UNL1        0.0086
     24 C          64.2180   91.3343   12.3527 C.ar    1  UNL1        0.0189
     25 C          65.4265   92.2079   12.5155 C.ar    1  UNL1        0.1027
     26 C          66.0565   92.3724   13.8668 C.ar    1  UNL1        0.0232
     27 C          65.4781   91.6633   15.0553 C.ar    1  UNL1        0.0309
     28 C          64.2696   90.7898   14.8926 C.ar    1  UNL1        0.1363
     29 F          63.6912   90.0807   16.0811 F       1  UNL1       -0.2045
     30 N          66.0049   92.9170   11.3269 N.ar    1  UNL1       -0.1478
     31 N          67.0897   92.3961   10.4315 N.ar    1  UNL1       -0.1447
     32 C          67.3554   93.4286    9.3763 C.ar    1  UNL1        0.1446
     33 C          66.4347   94.5876    9.6196 C.ar    1  UNL1        0.1446
     34 N          65.6001   94.2713   10.8252 N.ar    1  UNL1       -0.1447
@<TRIPOS>BOND
     1    10    11    1
     2    11    12   ar
     3    12    13   ar
     4    13    14   ar
     5    14    17    1
     6    17    18   ar
     7    18    19   ar
     8    19    20   ar
     9    20    21   ar
    10    14    15   ar
    11    15     1    1
    12     1     2    2
    13     1     3   am
    14     3     4    1
    15     4     5    1
    16     5     6    1
    17     5     7    1
    18     7     8    1
    19     8     9    1
    20     9    22    1
    21    22    23    1
    22    23    24   ar
    23    24    25   ar
    24    25    30    1
    25    30    31   ar
    26    31    32   ar
    27    32    33   ar
    28    33    34   ar
    29    25    26   ar
    30    26    27   ar
    31    27    28   ar
    32    28    29    1
    33    15    16   ar
    34    16    11   ar
    35    21    17   ar
    36     9     3    1
    37    28    23   ar
    38    34    30   ar
@<TRIPOS>MOLECULE
*****
 34 38 0 0 0
SMALL
GASTEIGER

@<TRIPOS>ATOM
      1 C          63.7511   86.9209   13.4266 C.2     1  UNL1        0.2506
      2 O          64.5792   87.3505   14.6012 O.2     1  UNL1       -0.2699
      3 N          63.1899   87.9483   12.4888 N.am    1  UNL1       -0.2724
      4 C          62.3618   87.5188   11.3142 C.3     1  UNL1        0.1231
      5 C          61.8006   88.5463   10.3763 C.3     1  UNL1        0.1351
      6 C          60.9725   88.1168    9.2017 C.3     1  UNL1        0.0339
      7 O          62.0676   90.0032   10.6131 O.3     1  UNL1       -0.3527
      8 C          62.8957   90.4327   11.7878 C.3     1  UNL1        0.1621
      9 C          63.4569   89.4053   12.7256 C.3     1  UNL1        0.1097
     10 C          63.6884   82.8174   10.2395 C.3     1  UNL1        0.0310
     11 C          63.4528   83.4122   11.5963 C.ar    1  UNL1       -0.0216
     12 C          62.9503   82.5501   12.7162 C.ar    1  UNL1       -0.0026
     13 C          62.7148   83.1449   14.0729 C.ar    1  UNL1        0.0207
     14 C          62.9817   84.6018   14.3097 C.ar    1  UNL1        0.1072
     15 C          63.4841   85.4640   13.1898 C.ar    1  UNL1        0.0726
     16 C          63.7197   84.8692   11.8331 C.ar    1  UNL1        0.0018
     17 N          62.7461   85.1966   15.6665 N.ar    1  UNL1       -0.1477
     18 N          61.4170   85.5973   16.2348 N.ar    1  UNL1       -0.1447
     19 C          61.6477   86.1435   17.6127 C.ar    1  UNL1        0.1446
     20 C          63.1194   86.0804   17.8959 C.ar    1  UNL1        0.1446
     21 N          63.7982   85.4952   16.6930 N.ar    1  UNL1       -0.1447
     22 C          64.2850   89.8348   13.9002 C.3     1  UNL1        0.0510
     23 C          65.1152   91.0813   13.8168 C.ar    1  UNL1        0.0086
     24 C          65.7309   91.4863   12.5104 C.ar    1  UNL1        0.0189
     25 C          66.5612   92.7328   12.4270 C.ar    1  UNL1        0.1027
     26 C          66.7759   93.5742   13.6501 C.ar    1  UNL1        0.0232
     27 C          66.1602   93.1691   14.9566 C.ar    1  UNL1        0.0309
     28 C          65.3299   91.9227   15.0400 C.ar    1  UNL1        0.1363
     29 F          64.7143   91.5176   16.3464 F       1  UNL1       -0.2045
     30 N          67.1768   93.1378   11.1205 N.ar    1  UNL1       -0.1478
     31 N          67.0024   94.4613   10.4364 N.ar    1  UNL1       -0.1447
     32 C          67.7927   94.4320    9.1618 C.ar    1  UNL1        0.1446
     33 C          68.4556   93.0903    9.0582 C.ar    1  UNL1        0.1446
     34 N          68.0750   92.2906   10.2687 N.ar    1  UNL1       -0.1447
@<TRIPOS>BOND
     1    10    11    1
     2    11    12   ar
     3    12    13   ar
     4    13    14   ar
     5    14    17    1
     6    17    18   ar
     7    18    19   ar
     8    19    20   ar
     9    20    21   ar
    10    14    15   ar
    11    15     1    1
    12     1     2    2
    13     1     3   am
    14     3     4    1
    15     4     5    1
    16     5     6    1
    17     5     7    1
    18     7     8    1
    19     8     9    1
    20     9    22    1
    21    22    23    1
    22    23    24   ar
    23    24    25   ar
    24    25    30    1
    25    30    31   ar
    26    31    32   ar
    27    32    33   ar
    28    33    34   ar
    29    25    26   ar
    30    26    27   ar
    31    27    28   ar
    32    28    29    1
    33    15    16   ar
    34    16    11   ar
    35    21    17   ar
    36     9     3    1
    37    28    23   ar
    38    34    30   ar
@<TRIPOS>MOLECULE
*****
 34 38 0 0 0
SMALL
GASTEIGER

@<TRIPOS>ATOM
      1 C          63.3230   88.0877   13.1655 C.2     1  UNL1        0.2506
      2 O          63.4949   89.2152   12.1912 O.2     1  UNL1       -0.2699
      3 N          63.2859   88.3684   14.6385 N.am    1  UNL1       -0.2724
      4 C          63.1141   87.2409   15.6128 C.3     1  UNL1        0.1231
      5 C          63.0769   87.5217   17.0859 C.3     1  UNL1        0.1351
      6 C          62.9051   86.3942   18.0602 C.3     1  UNL1        0.0339
      7 O          63.2117   88.9299   17.5846 O.3     1  UNL1       -0.3527
      8 C          63.3835   90.0574   16.6103 C.3     1  UNL1        0.1621
      9 C          63.4206   89.7767   15.1373 C.3     1  UNL1        0.1097
     10 C          64.5914   83.0590   13.4876 C.3     1  UNL1        0.0310
     11 C          63.8225   84.1651   12.8278 C.ar    1  UNL1       -0.0216
     12 C          62.9189   83.8630   11.6693 C.ar    1  UNL1       -0.0026
     13 C          62.1500   84.9691   11.0095 C.ar    1  UNL1        0.0207
     14 C          62.2847   86.3773   11.5082 C.ar    1  UNL1        0.1072
     15 C          63.1883   86.6794   12.6667 C.ar    1  UNL1        0.0726
     16 C          63.9572   85.5733   13.3265 C.ar    1  UNL1        0.0018
     17 N          61.5158   87.4834   10.8485 N.ar    1  UNL1       -0.1477
     18 N          61.7827   88.0521    9.4864 N.ar    1  UNL1       -0.1447
     19 C          60.7768   89.1352    9.2310 C.ar    1  UNL1        0.1446
     20 C          59.8883   89.2359   10.4353 C.ar    1  UNL1        0.1446
     21 N          60.3450   88.2150   11.4349 N.ar    1  UNL1       -0.1447
     22 C          63.5925   90.9041   14.1630 C.3     1  UNL1        0.0510
     23 C          64.9075   91.6194   14.0680 C.ar    1  UNL1        0.0086
     24 C          65.5368   91.8569   12.7273 C.ar    1  UNL1        0.0189
     25 C          66.8519   92.5722   12.6322 C.ar    1  UNL1        0.1027
     26 C          67.5377   93.0499   13.8778 C.ar    1  UNL1        0.0232
     27 C          66.9083   92.8123   15.2186 C.ar    1  UNL1        0.0309
     28 C          65.5932   92.0970   15.3136 C.ar    1  UNL1        0.1363
     29 F          64.9639   91.8595   16.6543 F       1  UNL1       -0.2045
     30 N          67.4812   92.8098   11.2915 N.ar    1  UNL1       -0.1478
     31 N          68.4554   91.9016   10.6014 N.ar    1  UNL1       -0.1447
     32 C          68.8231   92.5277    9.2889 C.ar    1  UNL1        0.1446
     33 C          68.0762   93.8230    9.1678 C.ar    1  UNL1        0.1446
     34 N          67.2469   93.9972   10.4055 N.ar    1  UNL1       -0.1447
@<TRIPOS>BOND
     1    10    11    1
     2    11    12   ar
     3    12    13   ar
     4    13    14   ar
     5    14    17    1
     6    17    18   ar
     7    18    19   ar
     8    19    20   ar
     9    20    21   ar
    10    14    15   ar
    11    15     1    1
    12     1     2    2
    13     1     3   am
    14     3     4    1
    15     4     5    1
    16     5     6    1
    17     5     7    1
    18     7     8    1
    19     8     9    1
    20     9    22    1
    21    22    23    1
    22    23    24   ar
    23    24    25   ar
    24    25    30    1
    25    30    31   ar
    26    31    32   ar
    27    32    33   ar
    28    33    34   ar
    29    25    26   ar
    30    26    27   ar
    31    27    28   ar
    32    28    29    1
    33    15    16   ar
    34    16    11   ar
    35    21    17   ar
    36     9     3    1
    37    28    23   ar
    38    34    30   ar
@<TRIPOS>MOLECULE
*****
 34 38 0 0 0
SMALL
GASTEIGER

@<TRIPOS>ATOM
      1 C          63.2270   87.5742   12.7004 C.2     1  UNL1        0.2506
      2 O          63.2479   88.3174   11.3976 O.2     1  UNL1       -0.2699
      3 N          63.1897   88.3308   13.9950 N.am    1  UNL1       -0.2724
      4 C          63.1689   87.5875   15.2977 C.3     1  UNL1        0.1231
      5 C          63.1316   88.3442   16.5924 C.3     1  UNL1        0.1351
      6 C          63.1107   87.6009   17.8952 C.3     1  UNL1        0.0339
      7 O          63.1152   89.8440   16.5843 O.3     1  UNL1       -0.3527
      8 C          63.1361   90.5873   15.2816 C.3     1  UNL1        0.1621
      9 C          63.1734   89.8307   13.9870 C.3     1  UNL1        0.1097
     10 C          64.8042   83.1025   14.8256 C.3     1  UNL1        0.0310
     11 C          64.0320   83.8384   13.7711 C.ar    1  UNL1       -0.0216
     12 C          63.2762   83.0745   12.7246 C.ar    1  UNL1       -0.0026
     13 C          62.5040   83.8105   11.6700 C.ar    1  UNL1        0.0207
     14 C          62.4876   85.3103   11.6619 C.ar    1  UNL1        0.1072
     15 C          63.2434   86.0742   12.7084 C.ar    1  UNL1        0.0726
     16 C          64.0156   85.3383   13.7630 C.ar    1  UNL1        0.0018
     17 N          61.7154   86.0462   10.6074 N.ar    1  UNL1       -0.1477
     18 N          61.9841   86.0112    9.1320 N.ar    1  UNL1       -0.1447
     19 C          60.9737   86.8897    8.4558 C.ar    1  UNL1        0.1446
     20 C          60.0805   87.4678    9.5132 C.ar    1  UNL1        0.1446
     21 N          60.5389   86.9465   10.8429 N.ar    1  UNL1       -0.1447
     22 C          63.1942   90.5740   12.6842 C.3     1  UNL1        0.0510
     23 C          64.3615   91.4507   12.3396 C.ar    1  UNL1        0.0086
     24 C          65.3967   91.7640   13.3788 C.ar    1  UNL1        0.0189
     25 C          66.5641   92.6407   13.0342 C.ar    1  UNL1        0.1027
     26 C          66.6961   93.2041   11.6503 C.ar    1  UNL1        0.0232
     27 C          65.6608   92.8907   10.6110 C.ar    1  UNL1        0.0309
     28 C          64.4936   92.0140   10.9557 C.ar    1  UNL1        0.1363
     29 F          63.4583   91.7007    9.9164 F       1  UNL1       -0.2045
     30 N          67.5993   92.9541   14.0734 N.ar    1  UNL1       -0.1478
     31 N          67.4056   93.8318   15.2743 N.ar    1  UNL1       -0.1447
     32 C          68.6965   93.8649   16.0373 C.ar    1  UNL1        0.1446
     33 C          69.6882   93.0077   15.3080 C.ar    1  UNL1        0.1446
     34 N          69.0101   92.4448   14.0943 N.ar    1  UNL1       -0.1447
@<TRIPOS>BOND
     1    10    11    1
     2    11    12   ar
     3    12    13   ar
     4    13    14   ar
     5    14    17    1
     6    17    18   ar
     7    18    19   ar
     8    19    20   ar
     9    20    21   ar
    10    14    15   ar
    11    15     1    1
    12     1     2    2
    13     1     3   am
    14     3     4    1
    15     4     5    1
    16     5     6    1
    17     5     7    1
    18     7     8    1
    19     8     9    1
    20     9    22    1
    21    22    23    1
    22    23    24   ar
    23    24    25   ar
    24    25    30    1
    25    30    31   ar
    26    31    32   ar
    27    32    33   ar
    28    33    34   ar
    29    25    26   ar
    30    26    27   ar
    31    27    28   ar
    32    28    29    1
    33    15    16   ar
    34    16    11   ar
    35    21    17   ar
    36     9     3    1
    37    28    23   ar
    38    34    30   ar
