@<TRIPOS>MOLECULE
*****
 34 36 0 0 0
SMALL
GASTEIGER

@<TRIPOS>ATOM
      1 N          63.5851   86.4350   13.6573 N.pl3   1  UNL1       -0.2927
      2 C          64.4002   87.0856   14.7353 C.3     1  UNL1        0.0927
      3 C          64.6999   88.5537   14.6664 C.3     1  UNL1        0.0306
      4 C          64.1844   89.3713   13.5193 C.3     1  UNL1        0.0814
      5 C          63.3692   88.7208   12.4413 C.3     1  UNL1        0.0306
      6 C          63.0696   87.2526   12.5102 C.3     1  UNL1        0.0927
      7 C          62.6861   82.0306   13.8642 C.ar    1  UNL1        0.0900
      8 C          62.3809   82.9143   15.0372 C.ar    1  UNL1        0.0207
      9 C          62.6805   84.3824   14.9682 C.ar    1  UNL1        0.1001
     10 C          63.2854   84.9669   13.7262 C.ar    1  UNL1        0.1409
     11 N          63.5907   84.0832   12.5533 N.ar    1  UNL1       -0.2341
     12 C          63.2911   82.6151   12.6223 C.ar    1  UNL1        0.0670
     13 C          63.5964   81.7314   11.4492 C.3     1  UNL1        0.0524
     14 C          62.3865   80.5625   13.9332 C.2     1  UNL1        0.3424
     15 O          63.4395   79.6034   14.4036 O.2     1  UNL1       -0.2449
     16 O          61.0339   80.0534   13.5318 O.3     1  UNL1       -0.4454
     17 C          58.6938   79.6244   14.5760 C.3     1  UNL1        0.0513
     18 C          59.8043   80.5679   14.2199 C.3     1  UNL1        0.2089
     19 C          62.3752   85.2661   16.1412 C.1     1  UNL1        0.1032
     20 N          62.0700   86.1498   17.3142 N.1     1  UNL1       -0.1907
     21 C          64.4840   90.8395   13.4503 C.2     1  UNL1        0.2402
     22 O          63.7687   91.7945   14.3593 O.2     1  UNL1       -0.2736
     23 N          65.4991   91.3526   12.4724 N.am    1  UNL1       -0.1885
     24 H          65.9686   90.7259   11.8758 H       1  UNL1        0.1762
     25 S          65.7987   92.8208   12.4035 S.O2    1  UNL1        0.0602
     26 O          64.8234   92.9667   11.2732 O.2     1  UNL1       -0.1541
     27 O          66.7740   92.6748   13.5337 O.2     1  UNL1       -0.1541
     28 C          66.0983   94.2889   12.3345 C.3     1  UNL1        0.1988
     29 C          66.3992   94.9317   11.0130 C.ar    1  UNL1        0.0032
     30 C          67.3795   94.2932   10.0742 C.ar    1  UNL1       -0.0025
     31 C          67.6803   94.9360    8.7528 C.ar    1  UNL1       -0.0003
     32 C          67.0008   96.2174    8.3701 C.ar    1  UNL1       -0.0000
     33 C          66.0206   96.8559    9.3089 C.ar    1  UNL1       -0.0003
     34 C          65.7197   96.2131   10.6304 C.ar    1  UNL1       -0.0025
@<TRIPOS>BOND
     1    17    18    1
     2    18    16    1
     3    16    14    1
     4    14    15    2
     5    14     7    1
     6     7     8   ar
     7     8     9   ar
     8     9    19    1
     9    19    20    3
    10     9    10   ar
    11    10     1    1
    12     1     2    1
    13     2     3    1
    14     3     4    1
    15     4    21    1
    16    21    22    2
    17    21    23   am
    18    23    25    1
    19    25    26    2
    20    25    27    2
    21    25    28    1
    22    28    29    1
    23    29    30   ar
    24    30    31   ar
    25    31    32   ar
    26    32    33   ar
    27    33    34   ar
    28     4     5    1
    29     5     6    1
    30    10    11   ar
    31    11    12   ar
    32    12    13    1
    33    12     7   ar
    34     6     1    1
    35    34    29   ar
    36    23    24    1
