@<TRIPOS>MOLECULE
*****
 36 40 0 0 0
SMALL
GASTEIGER

@<TRIPOS>ATOM
      1 N          63.5078   88.8601   14.0993 N.3     1  UNL1       -0.2679
      2 C          63.3785   89.5994   12.8006 C.3     1  UNL1        0.0978
      3 C          64.1809   90.8443   12.5632 C.3     1  UNL1        0.0224
      4 C          64.0515   91.5837   11.2644 C.3     1  UNL1        0.0065
      5 C          63.1198   91.0781   10.2032 C.3     1  UNL1        0.0277
      6 C          62.3174   89.8332   10.4406 C.ar    1  UNL1       -0.0073
      7 C          61.3857   89.3276    9.3794 C.ar    1  UNL1       -0.0015
      8 C          60.5833   88.0827    9.6169 C.ar    1  UNL1        0.0203
      9 C          60.7126   87.3434   10.9155 C.ar    1  UNL1        0.0985
     10 N          61.6443   87.8490   11.9768 N.ar    1  UNL1       -0.2471
     11 C          62.4467   89.0939   11.7393 C.ar    1  UNL1        0.0695
     12 C          64.4020   87.6594   14.1930 C.3     1  UNL1        0.0886
     13 C          61.9844   81.2857   13.3086 C.ar    1  UNL1       -0.0003
     14 C          62.5457   81.7826   12.0095 C.ar    1  UNL1       -0.0003
     15 C          63.1415   83.1567   11.9265 C.ar    1  UNL1       -0.0045
     16 C          63.1759   84.0339   13.1427 C.ar    1  UNL1       -0.0234
     17 C          62.6146   83.5371   14.4419 C.ar    1  UNL1       -0.0103
     18 C          62.0188   82.1630   14.5249 C.ar    1  UNL1       -0.0032
     19 C          62.6490   84.4143   15.6582 C.3     1  UNL1        0.0953
     20 N          63.2448   85.7884   15.5752 N.3     1  UNL1       -0.2934
     21 C          63.8062   86.2853   14.2760 C.3     1  UNL1        0.0748
     22 C          63.7717   85.4080   13.0597 C.3     1  UNL1        0.0432
     23 H          64.0037   85.8219   16.2559 H       1  UNL1        0.1236
     24 C          62.7430   89.3215   15.3044 C.3     1  UNL1        0.0725
     25 C          63.4165   90.1728   16.3395 C.3     1  UNL1        0.0188
     26 C          64.1684   91.4029   15.9254 C.3     1  UNL1        0.0185
     27 C          64.8808   92.2288   16.9553 C.3     1  UNL1        0.0686
     28 N          66.0874   93.0319   16.5691 N.3     1  UNL1       -0.2975
     29 H          66.5478   93.3072   17.4366 H       1  UNL1        0.1232
     30 C          67.1426   92.4256   15.6923 C.3     1  UNL1        0.0687
     31 C          67.1384   92.6961   14.2169 C.3     1  UNL1        0.0207
     32 C          66.3990   93.8830   13.6742 C.3     1  UNL1        0.0335
     33 C          66.3947   94.1535   12.1988 C.3     1  UNL1        0.1422
     34 O          67.1298   93.2372   11.2662 O.3     1  UNL1       -0.3538
     35 C          67.8691   92.0503   11.8089 C.3     1  UNL1        0.1422
     36 C          67.8734   91.7798   13.2843 C.3     1  UNL1        0.0335
@<TRIPOS>BOND
     1    13    14   ar
     2    14    15   ar
     3    15    16   ar
     4    16    17   ar
     5    17    18   ar
     6    17    19    1
     7    19    20    1
     8    20    21    1
     9    21    12    1
    10    12     1    1
    11     1    24    1
    12    24    25    1
    13    25    26    1
    14    26    27    1
    15    27    28    1
    16    28    30    1
    17    30    31    1
    18    31    32    1
    19    32    33    1
    20    33    34    1
    21    34    35    1
    22    35    36    1
    23     2     1    1
    24     2     3    1
    25     3     4    1
    26     4     5    1
    27     5     6    1
    28     6     7   ar
    29     7     8   ar
    30     8     9   ar
    31     9    10   ar
    32    10    11   ar
    33    21    22    1
    34    18    13   ar
    35    36    31    1
    36    11     2    1
    37    22    16    1
    38    11     6   ar
    39    20    23    1
    40    28    29    1
@<TRIPOS>MOLECULE
*****
 36 40 0 0 0
SMALL
GASTEIGER

@<TRIPOS>ATOM
      1 N          63.3362   88.8508   13.4462 N.3     1  UNL1       -0.2679
      2 C          62.8724   89.2464   12.0757 C.3     1  UNL1        0.0978
      3 C          63.0647   90.6546   11.5962 C.3     1  UNL1        0.0224
      4 C          62.6008   91.0502   10.2257 C.3     1  UNL1        0.0065
      5 C          61.9445   90.0375    9.3347 C.3     1  UNL1        0.0277
      6 C          61.7522   88.6293    9.8142 C.ar    1  UNL1       -0.0073
      7 C          61.0959   87.6167    8.9232 C.ar    1  UNL1       -0.0015
      8 C          60.9035   86.2085    9.4027 C.ar    1  UNL1        0.0203
      9 C          61.3674   85.8129   10.7732 C.ar    1  UNL1        0.0985
     10 N          62.0237   86.8255   11.6642 N.ar    1  UNL1       -0.2471
     11 C          62.2160   88.2337   11.1847 C.ar    1  UNL1        0.0695
     12 C          63.1408   89.7855   14.6031 C.3     1  UNL1        0.0886
     13 C          68.8916   93.4303   15.5481 C.ar    1  UNL1       -0.0003
     14 C          69.0694   92.5317   14.3603 C.ar    1  UNL1       -0.0003
     15 C          67.9548   91.6231   13.9338 C.ar    1  UNL1       -0.0045
     16 C          66.6624   91.6129   14.6950 C.ar    1  UNL1       -0.0234
     17 C          66.4846   92.5115   15.8828 C.ar    1  UNL1       -0.0103
     18 C          67.5992   93.4202   16.3094 C.ar    1  UNL1       -0.0032
     19 C          65.1922   92.5014   16.6441 C.3     1  UNL1        0.0953
     20 N          64.0776   91.5927   16.2176 N.3     1  UNL1       -0.2934
     21 C          64.2554   90.6941   15.0297 C.3     1  UNL1        0.0748
     22 C          65.5478   90.7043   14.2684 C.3     1  UNL1        0.0432
     23 H          63.2727   92.1870   16.0193 H       1  UNL1        0.1236
     24 C          63.9956   87.5205   13.6599 C.3     1  UNL1        0.0725
     25 C          64.4713   87.1303   15.0279 C.3     1  UNL1        0.0188
     26 C          64.4711   85.6877   15.4389 C.3     1  UNL1        0.0185
     27 C          63.1960   85.0348   15.8840 C.3     1  UNL1        0.0686
     28 N          62.2268   84.5107   14.8662 N.3     1  UNL1       -0.2975
     29 H          62.3588   85.0659   14.0207 H       1  UNL1        0.1232
     30 C          62.2808   83.0703   14.4513 C.3     1  UNL1        0.0687
     31 C          62.8493   82.6956   13.1147 C.3     1  UNL1        0.0207
     32 C          63.7719   83.6387   12.4011 C.3     1  UNL1        0.0335
     33 C          64.3405   83.2640   11.0645 C.3     1  UNL1        0.1422
     34 O          63.9865   81.9462   10.4416 O.3     1  UNL1       -0.3538
     35 C          63.0639   81.0031   11.1553 C.3     1  UNL1        0.1422
     36 C          62.4953   81.3778   12.4918 C.3     1  UNL1        0.0335
@<TRIPOS>BOND
     1    13    14   ar
     2    14    15   ar
     3    15    16   ar
     4    16    17   ar
     5    17    18   ar
     6    17    19    1
     7    19    20    1
     8    20    21    1
     9    21    12    1
    10    12     1    1
    11     1    24    1
    12    24    25    1
    13    25    26    1
    14    26    27    1
    15    27    28    1
    16    28    30    1
    17    30    31    1
    18    31    32    1
    19    32    33    1
    20    33    34    1
    21    34    35    1
    22    35    36    1
    23     2     1    1
    24     2     3    1
    25     3     4    1
    26     4     5    1
    27     5     6    1
    28     6     7   ar
    29     7     8   ar
    30     8     9   ar
    31     9    10   ar
    32    10    11   ar
    33    21    22    1
    34    18    13   ar
    35    36    31    1
    36    11     2    1
    37    22    16    1
    38    11     6   ar
    39    20    23    1
    40    28    29    1
@<TRIPOS>MOLECULE
*****
 36 40 0 0 0
SMALL
GASTEIGER

@<TRIPOS>ATOM
      1 N          63.1909   89.9105   13.0838 N.3     1  UNL1       -0.2679
      2 C          64.0011   90.9937   12.4357 C.3     1  UNL1        0.0978
      3 C          63.8711   91.2486   10.9633 C.3     1  UNL1        0.0224
      4 C          64.6814   92.3320   10.3152 C.3     1  UNL1        0.0065
      5 C          65.6216   93.1604   11.1397 C.3     1  UNL1        0.0277
      6 C          65.7515   92.9056   12.6121 C.ar    1  UNL1       -0.0073
      7 C          66.6917   93.7340   13.4365 C.ar    1  UNL1       -0.0015
      8 C          66.8217   93.4791   14.9090 C.ar    1  UNL1        0.0203
      9 C          66.0115   92.3959   15.5571 C.ar    1  UNL1        0.0985
     10 N          65.0713   91.5674   14.7326 N.ar    1  UNL1       -0.2471
     11 C          64.9413   91.8223   13.2602 C.ar    1  UNL1        0.0695
     12 C          61.7466   89.7339   12.7190 C.3     1  UNL1        0.0886
     13 C          61.1477   85.5393    7.3063 C.ar    1  UNL1       -0.0003
     14 C          62.4178   85.2194    8.0372 C.ar    1  UNL1       -0.0003
     15 C          62.7917   85.9943    9.2659 C.ar    1  UNL1       -0.0045
     16 C          61.8953   87.0892    9.7638 C.ar    1  UNL1       -0.0234
     17 C          60.6252   87.4091    9.0329 C.ar    1  UNL1       -0.0103
     18 C          60.2513   86.6341    7.8041 C.ar    1  UNL1       -0.0032
     19 C          59.7287   88.5039    9.5307 C.3     1  UNL1        0.0953
     20 N          60.1026   89.2789   10.7594 N.3     1  UNL1       -0.2934
     21 C          61.3728   88.9589   11.4903 C.3     1  UNL1        0.0748
     22 C          62.2692   87.8641   10.9925 C.3     1  UNL1        0.0432
     23 H          59.3406   89.1584   11.4266 H       1  UNL1        0.1236
     24 C          63.8249   89.0037   14.0967 C.3     1  UNL1        0.0725
     25 C          64.0235   87.5506   13.7822 C.3     1  UNL1        0.0188
     26 C          64.6520   86.6426   14.7973 C.3     1  UNL1        0.0185
     27 C          63.7871   85.8009   15.6882 C.3     1  UNL1        0.0686
     28 N          63.6441   84.3314   15.4238 N.3     1  UNL1       -0.2975
     29 H          63.4611   83.8868   16.3234 H       1  UNL1        0.1232
     30 C          62.5915   83.8389   14.4753 C.3     1  UNL1        0.0687
     31 C          62.9908   83.1734   13.1917 C.3     1  UNL1        0.0207
     32 C          64.0006   83.8228   12.2926 C.3     1  UNL1        0.0335
     33 C          64.3998   83.1572   11.0090 C.3     1  UNL1        0.1422
     34 O          63.7892   81.8423   10.6245 O.3     1  UNL1       -0.3538
     35 C          62.7793   81.1929   11.5236 C.3     1  UNL1        0.1422
     36 C          62.3801   81.8584   12.8072 C.3     1  UNL1        0.0335
@<TRIPOS>BOND
     1    13    14   ar
     2    14    15   ar
     3    15    16   ar
     4    16    17   ar
     5    17    18   ar
     6    17    19    1
     7    19    20    1
     8    20    21    1
     9    21    12    1
    10    12     1    1
    11     1    24    1
    12    24    25    1
    13    25    26    1
    14    26    27    1
    15    27    28    1
    16    28    30    1
    17    30    31    1
    18    31    32    1
    19    32    33    1
    20    33    34    1
    21    34    35    1
    22    35    36    1
    23     2     1    1
    24     2     3    1
    25     3     4    1
    26     4     5    1
    27     5     6    1
    28     6     7   ar
    29     7     8   ar
    30     8     9   ar
    31     9    10   ar
    32    10    11   ar
    33    21    22    1
    34    18    13   ar
    35    36    31    1
    36    11     2    1
    37    22    16    1
    38    11     6   ar
    39    20    23    1
    40    28    29    1
@<TRIPOS>MOLECULE
*****
 36 40 0 0 0
SMALL
GASTEIGER

@<TRIPOS>ATOM
      1 N          63.7990   90.0183   13.5850 N.3     1  UNL1       -0.2679
      2 C          64.7361   91.1523   13.8779 C.3     1  UNL1        0.0978
      3 C          65.2564   91.3548   15.2701 C.3     1  UNL1        0.0224
      4 C          66.1935   92.4889   15.5630 C.3     1  UNL1        0.0065
      5 C          66.6102   93.4204   14.4637 C.3     1  UNL1        0.0277
      6 C          66.0899   93.2179   13.0715 C.ar    1  UNL1       -0.0073
      7 C          66.5066   94.1495   11.9722 C.ar    1  UNL1       -0.0015
      8 C          65.9863   93.9470   10.5800 C.ar    1  UNL1        0.0203
      9 C          65.0493   92.8130   10.2871 C.ar    1  UNL1        0.0985
     10 N          64.6325   91.8814   11.3864 N.ar    1  UNL1       -0.2471
     11 C          65.1529   92.0839   12.7786 C.ar    1  UNL1        0.0695
     12 C          62.3668   90.2991   13.2387 C.3     1  UNL1        0.0886
     13 C          60.4579   86.6055    7.7648 C.ar    1  UNL1       -0.0003
     14 C          61.5630   85.8871    8.4807 C.ar    1  UNL1       -0.0003
     15 C          62.1658   86.4822    9.7187 C.ar    1  UNL1       -0.0045
     16 C          61.6635   87.7956   10.2407 C.ar    1  UNL1       -0.0234
     17 C          60.5584   88.5139    9.5248 C.ar    1  UNL1       -0.0103
     18 C          59.9555   87.9189    8.2869 C.ar    1  UNL1       -0.0032
     19 C          60.0559   89.8274   10.0468 C.3     1  UNL1        0.0953
     20 N          60.6587   90.4225   11.2848 N.3     1  UNL1       -0.2934
     21 C          61.7640   89.7041   12.0007 C.3     1  UNL1        0.0748
     22 C          62.2663   88.3907   11.4787 C.3     1  UNL1        0.0432
     23 H          59.8993   90.5378   11.9559 H       1  UNL1        0.1236
     24 C          64.2941   88.6033   13.6384 C.3     1  UNL1        0.0725
     25 C          64.2651   87.8470   14.9334 C.3     1  UNL1        0.0188
     26 C          64.6230   86.3905   14.9595 C.3     1  UNL1        0.0185
     27 C          63.8587   85.4461   15.8393 C.3     1  UNL1        0.0686
     28 N          62.5149   84.9393   15.4066 N.3     1  UNL1       -0.2975
     29 H          62.2839   85.4217   14.5381 H       1  UNL1        0.1232
     30 C          62.3110   83.4746   15.1556 C.3     1  UNL1        0.0687
     31 C          62.6052   82.8973   13.8028 C.3     1  UNL1        0.0207
     32 C          62.5527   81.4130   13.5931 C.3     1  UNL1        0.0335
     33 C          62.8469   80.8357   12.2403 C.3     1  UNL1        0.1422
     34 O          63.1937   81.7428   11.0971 O.3     1  UNL1       -0.3538
     35 C          63.2463   83.2271   11.3068 C.3     1  UNL1        0.1422
     36 C          62.9520   83.8044   12.6596 C.3     1  UNL1        0.0335
@<TRIPOS>BOND
     1    13    14   ar
     2    14    15   ar
     3    15    16   ar
     4    16    17   ar
     5    17    18   ar
     6    17    19    1
     7    19    20    1
     8    20    21    1
     9    21    12    1
    10    12     1    1
    11     1    24    1
    12    24    25    1
    13    25    26    1
    14    26    27    1
    15    27    28    1
    16    28    30    1
    17    30    31    1
    18    31    32    1
    19    32    33    1
    20    33    34    1
    21    34    35    1
    22    35    36    1
    23     2     1    1
    24     2     3    1
    25     3     4    1
    26     4     5    1
    27     5     6    1
    28     6     7   ar
    29     7     8   ar
    30     8     9   ar
    31     9    10   ar
    32    10    11   ar
    33    21    22    1
    34    18    13   ar
    35    36    31    1
    36    11     2    1
    37    22    16    1
    38    11     6   ar
    39    20    23    1
    40    28    29    1
@<TRIPOS>MOLECULE
*****
 36 40 0 0 0
SMALL
GASTEIGER

@<TRIPOS>ATOM
      1 N          62.4302   87.2489   11.6273 N.3     1  UNL1       -0.2679
      2 C          62.7369   88.7009   11.4093 C.3     1  UNL1        0.0978
      3 C          62.3316   89.3692   10.1290 C.3     1  UNL1        0.0224
      4 C          62.6383   90.8212    9.9111 C.3     1  UNL1        0.0065
      5 C          63.3504   91.6050   10.9734 C.3     1  UNL1        0.0277
      6 C          63.7558   90.9368   12.2537 C.ar    1  UNL1       -0.0073
      7 C          64.4679   91.7206   13.3160 C.ar    1  UNL1       -0.0015
      8 C          64.8733   91.0523   14.5963 C.ar    1  UNL1        0.0203
      9 C          64.5665   89.6003   14.8143 C.ar    1  UNL1        0.0985
     10 N          63.8544   88.8166   13.7520 N.ar    1  UNL1       -0.2471
     11 C          63.4491   89.4848   12.4717 C.ar    1  UNL1        0.0695
     12 C          63.4199   86.3712   12.3346 C.3     1  UNL1        0.0886
     13 C          61.9790   79.7382   13.4192 C.ar    1  UNL1       -0.0003
     14 C          62.6115   79.8886   12.0675 C.ar    1  UNL1       -0.0003
     15 C          63.0262   81.2453   11.5802 C.ar    1  UNL1       -0.0045
     16 C          62.8084   82.4515   12.4446 C.ar    1  UNL1       -0.0234
     17 C          62.1759   82.3012   13.7964 C.ar    1  UNL1       -0.0103
     18 C          61.7612   80.9445   14.2837 C.ar    1  UNL1       -0.0032
     19 C          61.9580   83.5075   14.6609 C.3     1  UNL1        0.0953
     20 N          62.3727   84.8642   14.1737 N.3     1  UNL1       -0.2934
     21 C          63.0052   85.0145   12.8218 C.3     1  UNL1        0.0748
     22 C          63.2231   83.8082   11.9574 C.3     1  UNL1        0.0432
     23 H          63.0396   85.2299   14.8532 H       1  UNL1        0.1236
     24 C          61.1338   86.6745   11.1380 C.3     1  UNL1        0.0725
     25 C          61.0752   85.9793    9.8101 C.3     1  UNL1        0.0188
     26 C          60.6828   86.7432    8.5803 C.3     1  UNL1        0.0185
     27 C          59.2417   86.8159    8.1704 C.3     1  UNL1        0.0686
     28 N          58.7269   88.0268    7.4503 N.3     1  UNL1       -0.2975
     29 H          58.0293   88.4564    8.0580 H       1  UNL1        0.1232
     30 C          59.6743   89.1155    7.0415 C.3     1  UNL1        0.0687
     31 C          59.2360   90.1616    6.0599 C.3     1  UNL1        0.0207
     32 C          60.2583   90.9277    5.2738 C.3     1  UNL1        0.0335
     33 C          59.8201   91.9738    4.2922 C.3     1  UNL1        0.1422
     34 O          58.3595   92.2539    4.0967 O.3     1  UNL1       -0.3538
     35 C          57.3372   91.4878    4.8827 C.3     1  UNL1        0.1422
     36 C          57.7755   90.4417    5.8643 C.3     1  UNL1        0.0335
@<TRIPOS>BOND
     1    13    14   ar
     2    14    15   ar
     3    15    16   ar
     4    16    17   ar
     5    17    18   ar
     6    17    19    1
     7    19    20    1
     8    20    21    1
     9    21    12    1
    10    12     1    1
    11     1    24    1
    12    24    25    1
    13    25    26    1
    14    26    27    1
    15    27    28    1
    16    28    30    1
    17    30    31    1
    18    31    32    1
    19    32    33    1
    20    33    34    1
    21    34    35    1
    22    35    36    1
    23     2     1    1
    24     2     3    1
    25     3     4    1
    26     4     5    1
    27     5     6    1
    28     6     7   ar
    29     7     8   ar
    30     8     9   ar
    31     9    10   ar
    32    10    11   ar
    33    21    22    1
    34    18    13   ar
    35    36    31    1
    36    11     2    1
    37    22    16    1
    38    11     6   ar
    39    20    23    1
    40    28    29    1
@<TRIPOS>MOLECULE
*****
 36 40 0 0 0
SMALL
GASTEIGER

@<TRIPOS>ATOM
      1 N          60.9510   87.4843   10.1965 N.3     1  UNL1       -0.2679
      2 C          61.8473   86.3395    9.8279 C.3     1  UNL1        0.0978
      3 C          62.1895   86.0880    8.3892 C.3     1  UNL1        0.0224
      4 C          63.0859   84.9431    8.0206 C.3     1  UNL1        0.0065
      5 C          63.6401   84.0499    9.0906 C.3     1  UNL1        0.0277
      6 C          63.2979   84.3014   10.5292 C.ar    1  UNL1       -0.0073
      7 C          63.8522   83.4081   11.5992 C.ar    1  UNL1       -0.0015
      8 C          63.5100   83.6597   13.0378 C.ar    1  UNL1        0.0203
      9 C          62.6137   84.8045   13.4065 C.ar    1  UNL1        0.0985
     10 N          62.0595   85.6977   12.3365 N.ar    1  UNL1       -0.2471
     11 C          62.4016   85.4462   10.8979 C.ar    1  UNL1        0.0695
     12 C          61.2082   88.2642   11.4519 C.3     1  UNL1        0.0886
     13 C          66.1305   92.9059   12.6664 C.ar    1  UNL1       -0.0003
     14 C          65.9787   92.0247   13.8706 C.ar    1  UNL1       -0.0003
     15 C          64.9639   90.9201   13.8686 C.ar    1  UNL1       -0.0045
     16 C          64.1009   90.6967   12.6623 C.ar    1  UNL1       -0.0234
     17 C          64.2527   91.5780   11.4580 C.ar    1  UNL1       -0.0103
     18 C          65.2675   92.6826   11.4600 C.ar    1  UNL1       -0.0032
     19 C          63.3896   91.3547   10.2516 C.3     1  UNL1        0.0953
     20 N          62.3748   90.2501   10.2495 N.3     1  UNL1       -0.2934
     21 C          62.2230   89.3688   11.4539 C.3     1  UNL1        0.0748
     22 C          63.0860   89.5921   12.6602 C.3     1  UNL1        0.0432
     23 H          62.6053   89.6399    9.4654 H       1  UNL1        0.1236
     24 C          59.7974   87.8493    9.3099 C.3     1  UNL1        0.0725
     25 C          59.9261   88.9884    8.3426 C.3     1  UNL1        0.0188
     26 C          59.3523   88.8683    6.9619 C.3     1  UNL1        0.0185
     27 C          58.9765   90.1021    6.1959 C.3     1  UNL1        0.0686
     28 N          60.0208   90.8526    5.4236 N.3     1  UNL1       -0.2975
     29 H          60.5142   90.1666    4.8523 H       1  UNL1        0.1232
     30 C          59.6177   91.9696    4.5074 C.3     1  UNL1        0.0687
     31 C          60.5007   92.3513    3.3564 C.3     1  UNL1        0.0207
     32 C          61.9445   91.9446    3.3517 C.3     1  UNL1        0.0335
     33 C          62.8274   92.3263    2.2008 C.3     1  UNL1        0.1422
     34 O          62.2666   93.1145    1.0545 O.3     1  UNL1       -0.3538
     35 C          60.8228   93.5211    1.0591 C.3     1  UNL1        0.1422
     36 C          59.9398   93.1395    2.2101 C.3     1  UNL1        0.0335
@<TRIPOS>BOND
     1    13    14   ar
     2    14    15   ar
     3    15    16   ar
     4    16    17   ar
     5    17    18   ar
     6    17    19    1
     7    19    20    1
     8    20    21    1
     9    21    12    1
    10    12     1    1
    11     1    24    1
    12    24    25    1
    13    25    26    1
    14    26    27    1
    15    27    28    1
    16    28    30    1
    17    30    31    1
    18    31    32    1
    19    32    33    1
    20    33    34    1
    21    34    35    1
    22    35    36    1
    23     2     1    1
    24     2     3    1
    25     3     4    1
    26     4     5    1
    27     5     6    1
    28     6     7   ar
    29     7     8   ar
    30     8     9   ar
    31     9    10   ar
    32    10    11   ar
    33    21    22    1
    34    18    13   ar
    35    36    31    1
    36    11     2    1
    37    22    16    1
    38    11     6   ar
    39    20    23    1
    40    28    29    1
@<TRIPOS>MOLECULE
*****
 36 40 0 0 0
SMALL
GASTEIGER

@<TRIPOS>ATOM
      1 N          63.1423   84.8754   14.3331 N.3     1  UNL1       -0.2679
      2 C          62.7180   83.4925   13.9361 C.3     1  UNL1        0.0978
      3 C          61.8506   82.6819   14.8529 C.3     1  UNL1        0.0224
      4 C          61.4263   81.2990   14.4558 C.3     1  UNL1        0.0065
      5 C          61.8694   80.7268   13.1419 C.3     1  UNL1        0.0277
      6 C          62.7368   81.5374   12.2251 C.ar    1  UNL1       -0.0073
      7 C          63.1799   80.9652   10.9113 C.ar    1  UNL1       -0.0015
      8 C          64.0473   81.7758    9.9945 C.ar    1  UNL1        0.0203
      9 C          64.4716   83.1586   10.3915 C.ar    1  UNL1        0.0985
     10 N          64.0285   83.7308   11.7054 N.ar    1  UNL1       -0.2471
     11 C          63.1611   82.9202   12.6222 C.ar    1  UNL1        0.0695
     12 C          63.8912   85.7382   13.3611 C.3     1  UNL1        0.0886
     13 C          60.0209   88.9621    8.6838 C.ar    1  UNL1       -0.0003
     14 C          59.8869   87.4801    8.4948 C.ar    1  UNL1       -0.0003
     15 C          60.6341   86.5390    9.3924 C.ar    1  UNL1       -0.0045
     16 C          61.5154   87.0798   10.4791 C.ar    1  UNL1       -0.0234
     17 C          61.6494   88.5617   10.6681 C.ar    1  UNL1       -0.0103
     18 C          60.9021   89.5029    9.7705 C.ar    1  UNL1       -0.0032
     19 C          62.5307   89.1026   11.7548 C.3     1  UNL1        0.0953
     20 N          63.2780   88.1614   12.6525 N.3     1  UNL1       -0.2934
     21 C          63.1439   86.6794   12.4634 C.3     1  UNL1        0.0748
     22 C          62.2627   86.1386   11.3768 C.3     1  UNL1        0.0432
     23 H          62.9793   88.3648   13.6063 H       1  UNL1        0.1236
     24 C          62.8178   85.3954   15.7021 C.3     1  UNL1        0.0725
     25 C          63.6527   86.4843   16.3081 C.3     1  UNL1        0.0188
     26 C          62.9999   87.5736   17.1065 C.3     1  UNL1        0.0185
     27 C          63.0509   88.9922   16.6216 C.3     1  UNL1        0.0686
     28 N          63.8797   89.3456   15.4224 N.3     1  UNL1       -0.2975
     29 H          63.6025   88.7093   14.6750 H       1  UNL1        0.1232
     30 C          63.8229   90.7325   14.8537 C.3     1  UNL1        0.0687
     31 C          65.0136   91.2994   14.1391 C.3     1  UNL1        0.0207
     32 C          66.3576   91.3004   14.8050 C.3     1  UNL1        0.0335
     33 C          67.5484   91.8673   14.0904 C.3     1  UNL1        0.1422
     34 O          67.3951   92.4334   12.7098 O.3     1  UNL1       -0.3538
     35 C          66.0511   92.4324   12.0439 C.3     1  UNL1        0.1422
     36 C          64.8603   91.8654   12.7585 C.3     1  UNL1        0.0335
@<TRIPOS>BOND
     1    13    14   ar
     2    14    15   ar
     3    15    16   ar
     4    16    17   ar
     5    17    18   ar
     6    17    19    1
     7    19    20    1
     8    20    21    1
     9    21    12    1
    10    12     1    1
    11     1    24    1
    12    24    25    1
    13    25    26    1
    14    26    27    1
    15    27    28    1
    16    28    30    1
    17    30    31    1
    18    31    32    1
    19    32    33    1
    20    33    34    1
    21    34    35    1
    22    35    36    1
    23     2     1    1
    24     2     3    1
    25     3     4    1
    26     4     5    1
    27     5     6    1
    28     6     7   ar
    29     7     8   ar
    30     8     9   ar
    31     9    10   ar
    32    10    11   ar
    33    21    22    1
    34    18    13   ar
    35    36    31    1
    36    11     2    1
    37    22    16    1
    38    11     6   ar
    39    20    23    1
    40    28    29    1
@<TRIPOS>MOLECULE
*****
 36 40 0 0 0
SMALL
GASTEIGER

@<TRIPOS>ATOM
      1 N          61.6287   87.7156   11.6456 N.3     1  UNL1       -0.2679
      2 C          62.1911   86.5998   10.8158 C.3     1  UNL1        0.0978
      3 C          62.3130   86.7585    9.3292 C.3     1  UNL1        0.0224
      4 C          62.8755   85.6426    8.4994 C.3     1  UNL1        0.0065
      5 C          63.3158   84.3680    9.1562 C.3     1  UNL1        0.0277
      6 C          63.1939   84.2093   10.6428 C.ar    1  UNL1       -0.0073
      7 C          63.6343   82.9347   11.2996 C.ar    1  UNL1       -0.0015
      8 C          63.5123   82.7759   12.7862 C.ar    1  UNL1        0.0203
      9 C          62.9499   83.8918   13.6160 C.ar    1  UNL1        0.0985
     10 N          62.5095   85.1664   12.9592 N.ar    1  UNL1       -0.2471
     11 C          62.6315   85.3251   11.4726 C.ar    1  UNL1        0.0695
     12 C          62.5148   88.4619   12.5985 C.3     1  UNL1        0.0886
     13 C          66.3199   94.1178   11.7143 C.ar    1  UNL1       -0.0003
     14 C          66.4674   93.6431   13.1295 C.ar    1  UNL1       -0.0003
     15 C          65.7358   92.4170   13.5894 C.ar    1  UNL1       -0.0045
     16 C          64.8569   91.6655   12.6341 C.ar    1  UNL1       -0.0234
     17 C          64.7094   92.1402   11.2188 C.ar    1  UNL1       -0.0103
     18 C          65.4410   93.3663   10.7590 C.ar    1  UNL1       -0.0032
     19 C          63.8304   91.3888   10.2634 C.3     1  UNL1        0.0953
     20 N          63.0989   90.1627   10.7233 N.3     1  UNL1       -0.2934
     21 C          63.2464   89.6880   12.1386 C.3     1  UNL1        0.0748
     22 C          64.1253   90.4394   13.0939 C.3     1  UNL1        0.0432
     23 H          63.4022   89.3962   10.1225 H       1  UNL1        0.1236
     24 C          60.1802   88.0853   11.5225 C.3     1  UNL1        0.0725
     25 C          59.7621   89.5226   11.6193 C.3     1  UNL1        0.0188
     26 C          59.8103   90.4011   10.4044 C.3     1  UNL1        0.0185
     27 C          60.2877   89.8454    9.0954 C.3     1  UNL1        0.0686
     28 N          59.3695   89.0062    8.2573 N.3     1  UNL1       -0.2975
     29 H          58.4265   89.3669    8.4023 H       1  UNL1        0.1232
     30 C          59.5768   88.9198    6.7743 C.3     1  UNL1        0.0687
     31 C          59.2338   90.0892    5.8997 C.3     1  UNL1        0.0207
     32 C          57.8039   90.5140    5.7422 C.3     1  UNL1        0.0335
     33 C          57.4609   91.6834    4.8676 C.3     1  UNL1        0.1422
     34 O          58.5477   92.4279    4.1505 O.3     1  UNL1       -0.3538
     35 C          59.9776   92.0031    4.3079 C.3     1  UNL1        0.1422
     36 C          60.3207   90.8337    5.1825 C.3     1  UNL1        0.0335
@<TRIPOS>BOND
     1    13    14   ar
     2    14    15   ar
     3    15    16   ar
     4    16    17   ar
     5    17    18   ar
     6    17    19    1
     7    19    20    1
     8    20    21    1
     9    21    12    1
    10    12     1    1
    11     1    24    1
    12    24    25    1
    13    25    26    1
    14    26    27    1
    15    27    28    1
    16    28    30    1
    17    30    31    1
    18    31    32    1
    19    32    33    1
    20    33    34    1
    21    34    35    1
    22    35    36    1
    23     2     1    1
    24     2     3    1
    25     3     4    1
    26     4     5    1
    27     5     6    1
    28     6     7   ar
    29     7     8   ar
    30     8     9   ar
    31     9    10   ar
    32    10    11   ar
    33    21    22    1
    34    18    13   ar
    35    36    31    1
    36    11     2    1
    37    22    16    1
    38    11     6   ar
    39    20    23    1
    40    28    29    1
@<TRIPOS>MOLECULE
*****
 36 40 0 0 0
SMALL
GASTEIGER

@<TRIPOS>ATOM
      1 N          63.2559   85.3371   12.9289 N.3     1  UNL1       -0.2679
      2 C          63.4058   84.1026   12.0902 C.3     1  UNL1        0.0978
      3 C          64.0453   84.1888   10.7361 C.3     1  UNL1        0.0224
      4 C          64.1951   82.9542    9.8975 C.3     1  UNL1        0.0065
      5 C          63.7054   81.6334   10.4129 C.3     1  UNL1        0.0277
      6 C          63.0658   81.5472   11.7670 C.ar    1  UNL1       -0.0073
      7 C          62.5761   80.2264   12.2824 C.ar    1  UNL1       -0.0015
      8 C          61.9365   80.1402   13.6364 C.ar    1  UNL1        0.0203
      9 C          61.7867   81.3748   14.4751 C.ar    1  UNL1        0.0985
     10 N          62.2765   82.6955   13.9597 N.ar    1  UNL1       -0.2471
     11 C          62.9160   82.7817   12.6056 C.ar    1  UNL1        0.0695
     12 C          61.9378   86.0509   12.9841 C.3     1  UNL1        0.0886
     13 C          59.5194   88.7445    7.1406 C.ar    1  UNL1       -0.0003
     14 C          59.3463   87.2551    7.1033 C.ar    1  UNL1       -0.0003
     15 C          59.7954   86.4185    8.2645 C.ar    1  UNL1       -0.0045
     16 C          60.4175   87.0713    9.4631 C.ar    1  UNL1       -0.0234
     17 C          60.5906   88.5608    9.5004 C.ar    1  UNL1       -0.0103
     18 C          60.1416   89.3974    8.3392 C.ar    1  UNL1       -0.0032
     19 C          61.2128   89.2137   10.6991 C.3     1  UNL1        0.0953
     20 N          61.6618   88.3771   11.8603 N.3     1  UNL1       -0.2934
     21 C          61.4887   86.8876   11.8229 C.3     1  UNL1        0.0748
     22 C          60.8666   86.2347   10.6243 C.3     1  UNL1        0.0432
     23 H          61.1535   88.7122   12.6786 H       1  UNL1        0.1236
     24 C          64.4242   85.8579   13.7124 C.3     1  UNL1        0.0725
     25 C          64.2029   86.8342   14.8294 C.3     1  UNL1        0.0188
     26 C          64.4074   88.3015   14.5946 C.3     1  UNL1        0.0185
     27 C          63.5632   89.3029   15.3259 C.3     1  UNL1        0.0686
     28 N          63.2428   90.6222   14.6880 N.3     1  UNL1       -0.2975
     29 H          63.7554   91.3335   15.2092 H       1  UNL1        0.1232
     30 C          63.5460   90.8466   13.2362 C.3     1  UNL1        0.0687
     31 C          64.7913   91.5802   12.8348 C.3     1  UNL1        0.0207
     32 C          64.9276   92.1201   11.4420 C.3     1  UNL1        0.0335
     33 C          66.1728   92.8537   11.0405 C.3     1  UNL1        0.1422
     34 O          67.2817   93.0476   12.0319 O.3     1  UNL1       -0.3538
     35 C          67.1453   92.5077   13.4247 C.3     1  UNL1        0.1422
     36 C          65.9001   91.7741   13.8261 C.3     1  UNL1        0.0335
@<TRIPOS>BOND
     1    13    14   ar
     2    14    15   ar
     3    15    16   ar
     4    16    17   ar
     5    17    18   ar
     6    17    19    1
     7    19    20    1
     8    20    21    1
     9    21    12    1
    10    12     1    1
    11     1    24    1
    12    24    25    1
    13    25    26    1
    14    26    27    1
    15    27    28    1
    16    28    30    1
    17    30    31    1
    18    31    32    1
    19    32    33    1
    20    33    34    1
    21    34    35    1
    22    35    36    1
    23     2     1    1
    24     2     3    1
    25     3     4    1
    26     4     5    1
    27     5     6    1
    28     6     7   ar
    29     7     8   ar
    30     8     9   ar
    31     9    10   ar
    32    10    11   ar
    33    21    22    1
    34    18    13   ar
    35    36    31    1
    36    11     2    1
    37    22    16    1
    38    11     6   ar
    39    20    23    1
    40    28    29    1
