@<TRIPOS>MOLECULE
*****
 30 32 0 0 0
SMALL
GASTEIGER

@<TRIPOS>ATOM
      1 C          63.4562   87.0075   13.0860 C.2     1  UNL1        0.4125
      2 O          64.2576   86.6912   14.3139 O.2     1  UNL1       -0.2255
      3 N          62.8646   85.8967   12.2697 N.am    1  UNL1       -0.2037
      4 C          62.0632   86.2130   11.0418 C.ar    1  UNL1        0.0613
      5 C          60.8552   87.0966   11.1417 C.ar    1  UNL1        0.0162
      6 C          60.0538   87.4129    9.9137 C.ar    1  UNL1        0.0127
      7 C          60.4604   86.8456    8.5861 C.ar    1  UNL1        0.0578
      8 CL         59.6590   87.1619    7.3582 Cl      1  UNL1       -0.0822
      9 C          61.6684   85.9620    8.4862 C.ar    1  UNL1        0.0127
     10 C          62.4698   85.6457    9.7141 C.ar    1  UNL1        0.0162
     11 C          63.0745   84.4697   12.6813 C.ar    1  UNL1        0.0613
     12 C          64.0424   83.6064   11.9278 C.ar    1  UNL1        0.0153
     13 C          64.2523   82.1793   12.3394 C.ar    1  UNL1        0.0013
     14 C          63.4943   81.6155   13.5045 C.ar    1  UNL1        0.0001
     15 C          62.5263   82.4788   14.2581 C.ar    1  UNL1        0.0013
     16 C          62.3164   83.9059   13.8465 C.ar    1  UNL1        0.0153
     17 O          63.2463   88.4346   12.6744 O.3     1  UNL1       -0.4341
     18 C          63.8739   89.5435   13.4658 C.3     1  UNL1        0.2100
     19 C          65.3588   93.2401   11.3729 C.3     1  UNL1        0.0297
     20 C          65.8311   92.9232   12.7608 C.3     1  UNL1        0.0026
     21 C          65.3362   91.6910   13.4584 C.3     1  UNL1        0.0038
     22 C          64.3689   90.7757   12.7681 C.3     1  UNL1        0.0439
     23 C          63.8965   91.0926   11.3802 C.3     1  UNL1        0.0038
     24 C          64.3915   92.3248   10.6826 C.3     1  UNL1        0.0026
     25 C          65.8538   94.4723   10.6752 C.3     1  UNL1        0.1426
     26 O          67.3273   94.7058   10.5206 O.3     1  UNL1       -0.3478
     27 C          68.0556   94.1432    9.3360 C.3     1  UNL1        0.1835
     28 O          68.6198   91.9706   10.6442 O.co2   1  UNL1       -0.5466
     29 C          68.5136   92.7148    9.3463 C.2     1  UNL1        0.0801
     30 O          68.8654   92.0308    8.0585 O.co2   1  UNL1       -0.5466
@<TRIPOS>UNITY_ATOM_ATTR
28 1
charge -1
@<TRIPOS>BOND
     1    28    29   ar
     2    29    30   ar
     3    29    27    1
     4    27    26    1
     5    26    25    1
     6    19    25    1
     7    19    20    1
     8    20    21    1
     9    21    22    1
    10    22    18    1
    11    18    17    1
    12    17     1    1
    13     1     2    2
    14     1     3   am
    15     3    11    1
    16    11    12   ar
    17    12    13   ar
    18    13    14   ar
    19    14    15   ar
    20    15    16   ar
    21     3     4    1
    22     4     5   ar
    23     5     6   ar
    24     6     7   ar
    25     7     8    1
    26     7     9   ar
    27     9    10   ar
    28    22    23    1
    29    23    24    1
    30    24    19    1
    31    16    11   ar
    32    10     4   ar
@<TRIPOS>MOLECULE
*****
 30 32 0 0 0
SMALL
GASTEIGER

@<TRIPOS>ATOM
      1 C          63.5101   86.2536   13.2030 C.2     1  UNL1        0.4125
      2 O          64.2380   85.6834   14.3841 O.2     1  UNL1       -0.2255
      3 N          62.7476   85.3470   12.2827 N.am    1  UNL1       -0.2037
      4 C          62.0197   85.9172   11.1016 C.ar    1  UNL1        0.0613
      5 C          62.4119   85.5118    9.7117 C.ar    1  UNL1        0.0162
      6 C          61.6840   86.0821    8.5306 C.ar    1  UNL1        0.0127
      7 C          60.5639   87.0576    8.7394 C.ar    1  UNL1        0.0578
      8 CL         59.8360   87.6278    7.5583 Cl      1  UNL1       -0.0822
      9 C          60.1717   87.4630   10.1293 C.ar    1  UNL1        0.0127
     10 C          60.8996   86.8928   11.3104 C.ar    1  UNL1        0.0162
     11 C          62.7132   83.8703   12.5435 C.ar    1  UNL1        0.0613
     12 C          62.2801   83.3554   13.8841 C.ar    1  UNL1        0.0153
     13 C          62.2457   81.8786   14.1450 C.ar    1  UNL1        0.0013
     14 C          62.6442   80.9168   13.0652 C.ar    1  UNL1        0.0001
     15 C          63.0773   81.4317   11.7245 C.ar    1  UNL1        0.0013
     16 C          63.1118   82.9084   11.4636 C.ar    1  UNL1        0.0153
     17 O          63.5446   87.7303   12.9422 O.3     1  UNL1       -0.4341
     18 C          63.9262   88.6773   14.0410 C.3     1  UNL1        0.2100
     19 C          65.6911   92.6935   13.0383 C.3     1  UNL1        0.0297
     20 C          64.6126   92.1112   12.1736 C.3     1  UNL1        0.0026
     21 C          64.0243   90.7725   12.5078 C.3     1  UNL1        0.0038
     22 C          64.5145   90.0160   13.7068 C.3     1  UNL1        0.0439
     23 C          65.5929   90.5983   14.5715 C.3     1  UNL1        0.0038
     24 C          66.1812   91.9371   14.2373 C.3     1  UNL1        0.0026
     25 C          66.2794   94.0322   12.7041 C.3     1  UNL1        0.1426
     26 O          66.0307   94.6459   11.3582 O.3     1  UNL1       -0.3478
     27 C          66.4912   93.9419   10.1163 C.3     1  UNL1        0.1835
     28 O          67.7154   95.5514    8.4850 O.co2   1  UNL1       -0.5466
     29 C          67.7475   94.3836    9.4259 C.2     1  UNL1        0.0801
     30 O          69.0360   93.6576    9.6765 O.co2   1  UNL1       -0.5466
@<TRIPOS>UNITY_ATOM_ATTR
28 1
charge -1
@<TRIPOS>BOND
     1    28    29   ar
     2    29    30   ar
     3    29    27    1
     4    27    26    1
     5    26    25    1
     6    19    25    1
     7    19    20    1
     8    20    21    1
     9    21    22    1
    10    22    18    1
    11    18    17    1
    12    17     1    1
    13     1     2    2
    14     1     3   am
    15     3    11    1
    16    11    12   ar
    17    12    13   ar
    18    13    14   ar
    19    14    15   ar
    20    15    16   ar
    21     3     4    1
    22     4     5   ar
    23     5     6   ar
    24     6     7   ar
    25     7     8    1
    26     7     9   ar
    27     9    10   ar
    28    22    23    1
    29    23    24    1
    30    24    19    1
    31    16    11   ar
    32    10     4   ar
@<TRIPOS>MOLECULE
*****
 30 32 0 0 0
SMALL
GASTEIGER

@<TRIPOS>ATOM
      1 C          64.0735   91.2740   12.9930 C.2     1  UNL1        0.4125
      2 O          64.5914   92.4261   12.1840 O.2     1  UNL1       -0.2255
      3 N          64.8144   90.8241   14.2173 N.am    1  UNL1       -0.2037
      4 C          64.2965   89.6721   15.0263 C.ar    1  UNL1        0.0613
      5 C          63.4613   89.9274   16.2459 C.ar    1  UNL1        0.0162
      6 C          62.9434   88.7753   17.0549 C.ar    1  UNL1        0.0127
      7 C          63.2606   87.3679   16.6443 C.ar    1  UNL1        0.0578
      8 CL         62.7427   86.2159   17.4533 Cl      1  UNL1       -0.0822
      9 C          64.0957   87.1126   15.4247 C.ar    1  UNL1        0.0127
     10 C          64.6136   88.2646   14.6157 C.ar    1  UNL1        0.0162
     11 C          66.0732   91.5263   14.6325 C.ar    1  UNL1        0.0613
     12 C          66.0909   92.3590   15.8800 C.ar    1  UNL1        0.0153
     13 C          67.3497   93.0612   16.2952 C.ar    1  UNL1        0.0013
     14 C          68.5907   92.9307   15.4629 C.ar    1  UNL1        0.0001
     15 C          68.5730   92.0980   14.2153 C.ar    1  UNL1        0.0013
     16 C          67.3142   91.3958   13.8001 C.ar    1  UNL1        0.0153
     17 O          62.8147   90.5718   12.5778 O.3     1  UNL1       -0.4341
     18 C          62.8911   89.2541   11.8652 C.3     1  UNL1        0.2100
     19 C          60.1178   88.3908    8.4281 C.3     1  UNL1        0.0297
     20 C          61.1297   87.3674    8.8506 C.3     1  UNL1        0.0026
     21 C          62.0542   87.6552    9.9963 C.3     1  UNL1        0.0038
     22 C          61.9667   88.9664   10.7195 C.3     1  UNL1        0.0439
     23 C          60.9547   89.9898   10.2970 C.3     1  UNL1        0.0038
     24 C          60.0303   89.7020    9.1513 C.3     1  UNL1        0.0026
     25 C          59.1934   88.1030    7.2824 C.3     1  UNL1        0.1426
     26 O          58.4074   89.2160    6.6551 O.3     1  UNL1       -0.3478
     27 C          59.0912   90.2030    5.7562 C.3     1  UNL1        0.1835
     28 O          56.8298   91.3442    5.1783 O.co2   1  UNL1       -0.5466
     29 C          58.3291   91.3746    5.2114 C.2     1  UNL1        0.0801
     30 O          59.0664   92.5765    4.6997 O.co2   1  UNL1       -0.5466
@<TRIPOS>UNITY_ATOM_ATTR
28 1
charge -1
@<TRIPOS>BOND
     1    28    29   ar
     2    29    30   ar
     3    29    27    1
     4    27    26    1
     5    26    25    1
     6    19    25    1
     7    19    20    1
     8    20    21    1
     9    21    22    1
    10    22    18    1
    11    18    17    1
    12    17     1    1
    13     1     2    2
    14     1     3   am
    15     3    11    1
    16    11    12   ar
    17    12    13   ar
    18    13    14   ar
    19    14    15   ar
    20    15    16   ar
    21     3     4    1
    22     4     5   ar
    23     5     6   ar
    24     6     7   ar
    25     7     8    1
    26     7     9   ar
    27     9    10   ar
    28    22    23    1
    29    23    24    1
    30    24    19    1
    31    16    11   ar
    32    10     4   ar
@<TRIPOS>MOLECULE
*****
 30 32 0 0 0
SMALL
GASTEIGER

@<TRIPOS>ATOM
      1 C          63.1513   89.9937   12.1224 C.2     1  UNL1        0.4125
      2 O          63.3785   90.9261   10.9697 O.2     1  UNL1       -0.2255
      3 N          63.9830   90.1199   13.3644 N.am    1  UNL1       -0.2037
      4 C          63.7557   89.1875   14.5171 C.ar    1  UNL1        0.0613
      5 C          63.0954   89.6878   15.7676 C.ar    1  UNL1        0.0162
      6 C          62.8682   88.7553   16.9204 C.ar    1  UNL1        0.0127
      7 C          63.3013   87.3226   16.8227 C.ar    1  UNL1        0.0578
      8 CL         63.0741   86.3901   17.9755 Cl      1  UNL1       -0.0822
      9 C          63.9616   86.8222   15.5722 C.ar    1  UNL1        0.0127
     10 C          64.1888   87.7547   14.4195 C.ar    1  UNL1        0.0162
     11 C          65.0419   91.1786   13.4535 C.ar    1  UNL1        0.0613
     12 C          66.0572   91.1329   14.5567 C.ar    1  UNL1        0.0153
     13 C          67.1161   92.1915   14.6458 C.ar    1  UNL1        0.0013
     14 C          67.1596   93.2960   13.6318 C.ar    1  UNL1        0.0001
     15 C          66.1443   93.3418   12.5286 C.ar    1  UNL1        0.0013
     16 C          65.0854   92.2831   12.4394 C.ar    1  UNL1        0.0153
     17 O          62.0924   88.9350   12.0333 O.3     1  UNL1       -0.4341
     18 C          61.9461   88.1242   10.7799 C.3     1  UNL1        0.2100
     19 C          63.2569   83.8197   10.7189 C.3     1  UNL1        0.0297
     20 C          63.1239   84.5815    9.4336 C.3     1  UNL1        0.0026
     21 C          62.6869   86.0163    9.4540 C.3     1  UNL1        0.0038
     22 C          62.3830   86.6894   10.7595 C.3     1  UNL1        0.0439
     23 C          62.5160   85.9276   12.0448 C.3     1  UNL1        0.0038
     24 C          62.9529   84.4928   12.0245 C.3     1  UNL1        0.0026
     25 C          63.6938   82.3849   10.6986 C.3     1  UNL1        0.1426
     26 O          63.8803   81.6394   11.9867 O.3     1  UNL1       -0.3478
     27 C          62.7463   80.8461   12.5652 C.3     1  UNL1        0.1835
     28 O          60.6805   80.8613   14.1407 O.co2   1  UNL1       -0.5466
     29 C          62.0800   81.3022   13.8293 C.2     1  UNL1        0.0801
     30 O          62.8132   82.1994   14.7820 O.co2   1  UNL1       -0.5466
@<TRIPOS>UNITY_ATOM_ATTR
28 1
charge -1
@<TRIPOS>BOND
     1    28    29   ar
     2    29    30   ar
     3    29    27    1
     4    27    26    1
     5    26    25    1
     6    19    25    1
     7    19    20    1
     8    20    21    1
     9    21    22    1
    10    22    18    1
    11    18    17    1
    12    17     1    1
    13     1     2    2
    14     1     3   am
    15     3    11    1
    16    11    12   ar
    17    12    13   ar
    18    13    14   ar
    19    14    15   ar
    20    15    16   ar
    21     3     4    1
    22     4     5   ar
    23     5     6   ar
    24     6     7   ar
    25     7     8    1
    26     7     9   ar
    27     9    10   ar
    28    22    23    1
    29    23    24    1
    30    24    19    1
    31    16    11   ar
    32    10     4   ar
@<TRIPOS>MOLECULE
*****
 30 32 0 0 0
SMALL
GASTEIGER

@<TRIPOS>ATOM
      1 C          62.6266   87.9446   11.1219 C.2     1  UNL1        0.4125
      2 O          62.3005   88.9609   10.0680 O.2     1  UNL1       -0.2255
      3 N          62.5035   86.4811   10.8163 N.am    1  UNL1       -0.2037
      4 C          62.8297   85.4649   11.8702 C.ar    1  UNL1        0.0613
      5 C          62.5451   84.0126   11.6253 C.ar    1  UNL1        0.0162
      6 C          62.8713   82.9963   12.6793 C.ar    1  UNL1        0.0127
      7 C          63.4820   83.4323   13.9781 C.ar    1  UNL1        0.0578
      8 CL         63.8081   82.4160   15.0320 Cl      1  UNL1       -0.0822
      9 C          63.7665   84.8845   14.2230 C.ar    1  UNL1        0.0127
     10 C          63.4404   85.9008   13.1691 C.ar    1  UNL1        0.0162
     11 C          62.0543   86.0341    9.4568 C.ar    1  UNL1        0.0613
     12 C          60.6380   86.2664    9.0209 C.ar    1  UNL1        0.0153
     13 C          60.1887   85.8194    7.6614 C.ar    1  UNL1        0.0013
     14 C          61.1558   85.1400    6.7377 C.ar    1  UNL1        0.0001
     15 C          62.5722   84.9077    7.1736 C.ar    1  UNL1        0.0013
     16 C          63.0214   85.3547    8.5331 C.ar    1  UNL1        0.0153
     17 O          63.0759   88.3916   12.4814 O.3     1  UNL1       -0.4341
     18 C          62.8131   89.7975   12.9335 C.3     1  UNL1        0.2100
     19 C          65.5949   93.1138   11.7034 C.3     1  UNL1        0.0297
     20 C          65.6439   92.5737   13.1019 C.3     1  UNL1        0.0026
     21 C          64.7167   91.4683   13.5119 C.3     1  UNL1        0.0038
     22 C          63.7403   90.9029   12.5235 C.3     1  UNL1        0.0439
     23 C          63.6913   91.4430   11.1250 C.3     1  UNL1        0.0038
     24 C          64.6186   92.5484   10.7149 C.3     1  UNL1        0.0026
     25 C          66.5222   94.2193   11.2933 C.3     1  UNL1        0.1426
     26 O          66.7606   94.4974    9.8388 O.3     1  UNL1       -0.3478
     27 C          68.0760   94.1400    9.2126 C.3     1  UNL1        0.1835
     28 O          68.7441   92.0675   10.6299 O.co2   1  UNL1       -0.5466
     29 C          68.5876   92.7322    9.2944 C.2     1  UNL1        0.0801
     30 O          68.9429   91.9894    8.0406 O.co2   1  UNL1       -0.5466
@<TRIPOS>UNITY_ATOM_ATTR
28 1
charge -1
@<TRIPOS>BOND
     1    28    29   ar
     2    29    30   ar
     3    29    27    1
     4    27    26    1
     5    26    25    1
     6    19    25    1
     7    19    20    1
     8    20    21    1
     9    21    22    1
    10    22    18    1
    11    18    17    1
    12    17     1    1
    13     1     2    2
    14     1     3   am
    15     3    11    1
    16    11    12   ar
    17    12    13   ar
    18    13    14   ar
    19    14    15   ar
    20    15    16   ar
    21     3     4    1
    22     4     5   ar
    23     5     6   ar
    24     6     7   ar
    25     7     8    1
    26     7     9   ar
    27     9    10   ar
    28    22    23    1
    29    23    24    1
    30    24    19    1
    31    16    11   ar
    32    10     4   ar
@<TRIPOS>MOLECULE
*****
 30 32 0 0 0
SMALL
GASTEIGER

@<TRIPOS>ATOM
      1 C          61.5298   87.8920   10.5848 C.2     1  UNL1        0.4125
      2 O          60.9849   88.7065    9.4492 O.2     1  UNL1       -0.2255
      3 N          61.9638   86.4752   10.3511 N.am    1  UNL1       -0.2037
      4 C          62.5087   85.6607   11.4866 C.ar    1  UNL1        0.0613
      5 C          63.2129   86.3376   12.6249 C.ar    1  UNL1        0.0162
      6 C          63.7578   85.5230   13.7606 C.ar    1  UNL1        0.0127
      7 C          63.5984   84.0315   13.7578 C.ar    1  UNL1        0.0578
      8 CL         64.1433   83.2169   14.8934 Cl      1  UNL1       -0.0822
      9 C          62.8942   83.3546   12.6195 C.ar    1  UNL1        0.0127
     10 C          62.3493   84.1691   11.4839 C.ar    1  UNL1        0.0162
     11 C          61.8528   85.8731    8.9817 C.ar    1  UNL1        0.0613
     12 C          63.0594   85.2662    8.3292 C.ar    1  UNL1        0.0153
     13 C          62.9485   84.6641    6.9599 C.ar    1  UNL1        0.0013
     14 C          61.6309   84.6688    6.2430 C.ar    1  UNL1        0.0001
     15 C          60.4242   85.2757    6.8955 C.ar    1  UNL1        0.0013
     16 C          60.5352   85.8778    8.2648 C.ar    1  UNL1        0.0153
     17 O          61.6408   88.4941   11.9542 O.3     1  UNL1       -0.4341
     18 C          61.6435   89.9849   12.1200 C.3     1  UNL1        0.2100
     19 C          65.5401   92.2348   12.1811 C.3     1  UNL1        0.0297
     20 C          65.0205   91.6006   13.4372 C.3     1  UNL1        0.0026
     21 C          63.7216   90.8506   13.4168 C.3     1  UNL1        0.0038
     22 C          62.9424   90.7348   12.1404 C.3     1  UNL1        0.0439
     23 C          63.4620   91.3691   10.8843 C.3     1  UNL1        0.0038
     24 C          64.7609   92.1191   10.9047 C.3     1  UNL1        0.0026
     25 C          66.8390   92.9848   12.2015 C.3     1  UNL1        0.1426
     26 O          68.1089   92.2966   11.7969 O.3     1  UNL1       -0.3478
     27 C          68.2602   91.7600   10.4043 C.3     1  UNL1        0.1835
     28 O          68.9187   92.1338    7.9190 O.co2   1  UNL1       -0.5466
     29 C          68.5990   92.6881    9.2756 C.2     1  UNL1        0.0801
     30 O          68.6181   94.1706    9.5036 O.co2   1  UNL1       -0.5466
@<TRIPOS>UNITY_ATOM_ATTR
28 1
charge -1
@<TRIPOS>BOND
     1    28    29   ar
     2    29    30   ar
     3    29    27    1
     4    27    26    1
     5    26    25    1
     6    19    25    1
     7    19    20    1
     8    20    21    1
     9    21    22    1
    10    22    18    1
    11    18    17    1
    12    17     1    1
    13     1     2    2
    14     1     3   am
    15     3    11    1
    16    11    12   ar
    17    12    13   ar
    18    13    14   ar
    19    14    15   ar
    20    15    16   ar
    21     3     4    1
    22     4     5   ar
    23     5     6   ar
    24     6     7   ar
    25     7     8    1
    26     7     9   ar
    27     9    10   ar
    28    22    23    1
    29    23    24    1
    30    24    19    1
    31    16    11   ar
    32    10     4   ar
@<TRIPOS>MOLECULE
*****
 30 32 0 0 0
SMALL
GASTEIGER

@<TRIPOS>ATOM
      1 C          64.7773   91.5704   12.3760 C.2     1  UNL1        0.4125
      2 O          64.3827   90.6703   13.5092 O.2     1  UNL1       -0.2255
      3 N          65.9691   92.4709   12.5135 N.am    1  UNL1       -0.2037
      4 C          66.3636   93.3710   11.3803 C.ar    1  UNL1        0.0613
      5 C          65.9329   94.8078   11.3789 C.ar    1  UNL1        0.0162
      6 C          66.3275   95.7080   10.2457 C.ar    1  UNL1        0.0127
      7 C          67.1528   95.1713    9.1140 C.ar    1  UNL1        0.0578
      8 CL         67.5473   96.0714    7.9808 Cl      1  UNL1       -0.0822
      9 C          67.5835   93.7345    9.1154 C.ar    1  UNL1        0.0127
     10 C          67.1889   92.8343   10.2485 C.ar    1  UNL1        0.0162
     11 C          66.7663   92.4711   13.7840 C.ar    1  UNL1        0.0613
     12 C          66.1035   92.8134   15.0853 C.ar    1  UNL1        0.0153
     13 C          66.9007   92.8136   16.3559 C.ar    1  UNL1        0.0013
     14 C          68.3608   92.4715   16.3252 C.ar    1  UNL1        0.0001
     15 C          69.0238   92.1292   15.0239 C.ar    1  UNL1        0.0013
     16 C          68.2266   92.1290   13.7533 C.ar    1  UNL1        0.0153
     17 O          63.9800   91.5702   11.1055 O.3     1  UNL1       -0.4341
     18 C          62.6348   90.9079   11.0642 C.3     1  UNL1        0.2100
     19 C          62.3409   86.4238   10.8259 C.3     1  UNL1        0.0297
     20 C          61.9149   87.2664    9.6603 C.3     1  UNL1        0.0026
     21 C          62.0129   88.7611    9.7398 C.3     1  UNL1        0.0038
     22 C          62.5368   89.4132   10.9848 C.3     1  UNL1        0.0439
     23 C          62.9628   88.5707   12.1504 C.3     1  UNL1        0.0038
     24 C          62.8648   87.0760   12.0709 C.3     1  UNL1        0.0026
     25 C          62.2429   84.9292   10.7465 C.3     1  UNL1        0.1426
     26 O          63.1989   84.0726   11.5225 O.3     1  UNL1       -0.3478
     27 C          62.6838   83.1447   12.5826 C.3     1  UNL1        0.1835
     28 O          63.6955   82.6204   14.9175 O.co2   1  UNL1       -0.5466
     29 C          62.8559   83.4923   14.0316 C.2     1  UNL1        0.0801
     30 O          62.1883   84.7118   14.5947 O.co2   1  UNL1       -0.5466
@<TRIPOS>UNITY_ATOM_ATTR
28 1
charge -1
@<TRIPOS>BOND
     1    28    29   ar
     2    29    30   ar
     3    29    27    1
     4    27    26    1
     5    26    25    1
     6    19    25    1
     7    19    20    1
     8    20    21    1
     9    21    22    1
    10    22    18    1
    11    18    17    1
    12    17     1    1
    13     1     2    2
    14     1     3   am
    15     3    11    1
    16    11    12   ar
    17    12    13   ar
    18    13    14   ar
    19    14    15   ar
    20    15    16   ar
    21     3     4    1
    22     4     5   ar
    23     5     6   ar
    24     6     7   ar
    25     7     8    1
    26     7     9   ar
    27     9    10   ar
    28    22    23    1
    29    23    24    1
    30    24    19    1
    31    16    11   ar
    32    10     4   ar
@<TRIPOS>MOLECULE
*****
 30 32 0 0 0
SMALL
GASTEIGER

@<TRIPOS>ATOM
      1 C          61.6250   88.0547   10.6925 C.2     1  UNL1        0.4125
      2 O          61.0765   88.8706    9.5597 O.2     1  UNL1       -0.2255
      3 N          62.0083   86.6219   10.4682 N.am    1  UNL1       -0.2037
      4 C          62.5568   85.8060   11.6010 C.ar    1  UNL1        0.0613
      5 C          63.2987   86.4775   12.7184 C.ar    1  UNL1        0.0162
      6 C          63.8473   85.6616   13.8513 C.ar    1  UNL1        0.0127
      7 C          63.6539   84.1742   13.8668 C.ar    1  UNL1        0.0578
      8 CL         64.2024   83.3583   14.9996 Cl      1  UNL1       -0.0822
      9 C          62.9120   83.5027   12.7493 C.ar    1  UNL1        0.0127
     10 C          62.3634   84.3186   11.6165 C.ar    1  UNL1        0.0162
     11 C          61.8429   86.0050    9.1109 C.ar    1  UNL1        0.0613
     12 C          63.0111   85.3461    8.4392 C.ar    1  UNL1        0.0153
     13 C          62.8457   84.7292    7.0820 C.ar    1  UNL1        0.0013
     14 C          61.5123   84.7713    6.3964 C.ar    1  UNL1        0.0001
     15 C          60.3441   85.4303    7.0681 C.ar    1  UNL1        0.0013
     16 C          60.5094   86.0471    8.4253 C.ar    1  UNL1        0.0153
     17 O          61.7903   88.6715   12.0498 O.3     1  UNL1       -0.4341
     18 C          61.8780   90.1623   12.1905 C.3     1  UNL1        0.2100
     19 C          65.8688   92.1273   12.8710 C.3     1  UNL1        0.0297
     20 C          65.2307   91.3260   13.9668 C.3     1  UNL1        0.0026
     21 C          63.9004   90.6710   13.7400 C.3     1  UNL1        0.0038
     22 C          63.2083   90.8173   12.4173 C.3     1  UNL1        0.0439
     23 C          63.8464   91.6185   11.3215 C.3     1  UNL1        0.0038
     24 C          65.1766   92.2735   11.5484 C.3     1  UNL1        0.0026
     25 C          67.1990   92.7822   13.0979 C.3     1  UNL1        0.1426
     26 O          68.3386   91.9889   13.6653 O.3     1  UNL1       -0.3478
     27 C          68.8442   92.2847   15.0461 C.3     1  UNL1        0.1835
     28 O          66.7897   92.8569   16.5300 O.co2   1  UNL1       -0.5466
     29 C          68.1048   93.2497   15.9249 C.2     1  UNL1        0.0801
     30 O          68.6805   94.6075   16.1984 O.co2   1  UNL1       -0.5466
@<TRIPOS>UNITY_ATOM_ATTR
28 1
charge -1
@<TRIPOS>BOND
     1    28    29   ar
     2    29    30   ar
     3    29    27    1
     4    27    26    1
     5    26    25    1
     6    19    25    1
     7    19    20    1
     8    20    21    1
     9    21    22    1
    10    22    18    1
    11    18    17    1
    12    17     1    1
    13     1     2    2
    14     1     3   am
    15     3    11    1
    16    11    12   ar
    17    12    13   ar
    18    13    14   ar
    19    14    15   ar
    20    15    16   ar
    21     3     4    1
    22     4     5   ar
    23     5     6   ar
    24     6     7   ar
    25     7     8    1
    26     7     9   ar
    27     9    10   ar
    28    22    23    1
    29    23    24    1
    30    24    19    1
    31    16    11   ar
    32    10     4   ar
@<TRIPOS>MOLECULE
*****
 30 32 0 0 0
SMALL
GASTEIGER

@<TRIPOS>ATOM
      1 C          62.1068   86.1162   11.2777 C.2     1  UNL1        0.4125
      2 O          61.9090   85.8335    9.8180 O.2     1  UNL1       -0.2255
      3 N          62.6505   85.0494   12.1813 N.am    1  UNL1       -0.2037
      4 C          62.8484   85.3320   13.6411 C.ar    1  UNL1        0.0613
      5 C          63.8651   86.3447   14.0779 C.ar    1  UNL1        0.0162
      6 C          64.0630   86.6273   15.5377 C.ar    1  UNL1        0.0127
      7 C          63.2441   85.8974   16.5607 C.ar    1  UNL1        0.0578
      8 CL         63.4419   86.1801   18.0204 Cl      1  UNL1       -0.0822
      9 C          62.2273   84.8848   16.1239 C.ar    1  UNL1        0.0127
     10 C          62.0294   84.6021   14.6642 C.ar    1  UNL1        0.0162
     11 C          62.9963   83.6999   11.6251 C.ar    1  UNL1        0.0613
     12 C          62.3899   82.4647   12.2222 C.ar    1  UNL1        0.0153
     13 C          62.7357   81.1153   11.6660 C.ar    1  UNL1        0.0013
     14 C          63.6879   81.0010   10.5127 C.ar    1  UNL1        0.0001
     15 C          64.2944   82.2362    9.9155 C.ar    1  UNL1        0.0013
     16 C          63.9486   83.5857   10.4717 C.ar    1  UNL1        0.0153
     17 O          61.7610   87.4656   11.8340 O.3     1  UNL1       -0.4341
     18 C          61.7982   88.6745   10.9468 C.3     1  UNL1        0.2100
     19 C          64.7285   91.9868   11.7788 C.3     1  UNL1        0.0297
     20 C          64.4091   90.9823   12.8460 C.3     1  UNL1        0.0026
     21 C          63.4324   89.8782   12.5687 C.3     1  UNL1        0.0038
     22 C          62.7750   89.7786   11.2241 C.3     1  UNL1        0.0439
     23 C          63.0944   90.7831   10.1569 C.3     1  UNL1        0.0038
     24 C          64.0712   91.8871   10.4342 C.3     1  UNL1        0.0026
     25 C          65.7053   93.0909   12.0561 C.3     1  UNL1        0.1426
     26 O          67.1669   92.8836   11.7901 O.3     1  UNL1       -0.3478
     27 C          67.6091   92.1690   10.5476 C.3     1  UNL1        0.1835
     28 O          68.7688   92.2110    8.2231 O.co2   1  UNL1       -0.5466
     29 C          68.2466   92.9366    9.4275 C.2     1  UNL1        0.0801
     30 O          68.3617   94.4297    9.5119 O.co2   1  UNL1       -0.5466
@<TRIPOS>UNITY_ATOM_ATTR
28 1
charge -1
@<TRIPOS>BOND
     1    28    29   ar
     2    29    30   ar
     3    29    27    1
     4    27    26    1
     5    26    25    1
     6    19    25    1
     7    19    20    1
     8    20    21    1
     9    21    22    1
    10    22    18    1
    11    18    17    1
    12    17     1    1
    13     1     2    2
    14     1     3   am
    15     3    11    1
    16    11    12   ar
    17    12    13   ar
    18    13    14   ar
    19    14    15   ar
    20    15    16   ar
    21     3     4    1
    22     4     5   ar
    23     5     6   ar
    24     6     7   ar
    25     7     8    1
    26     7     9   ar
    27     9    10   ar
    28    22    23    1
    29    23    24    1
    30    24    19    1
    31    16    11   ar
    32    10     4   ar
