@<TRIPOS>MOLECULE
*****
 31 33 0 0 0
SMALL
GASTEIGER

@<TRIPOS>ATOM
      1 C          63.8684   88.7084   15.2666 C.2     1  UNL1        0.2534
      2 O          62.8589   88.8875   16.3615 O.2     1  UNL1       -0.2695
      3 N          64.3406   87.3329   14.8994 N.am    1  UNL1       -0.2965
      4 H          65.0031   87.2154   14.1808 H       1  UNL1        0.1501
      5 C          65.8667   94.4507   10.3009 C.3     1  UNL1        0.0537
      6 C          65.7823   93.6166   11.5448 C.ar    1  UNL1        0.0771
      7 N          66.5441   94.0209   12.7720 N.ar    1  UNL1       -0.1522
      8 N          66.4596   93.1869   14.0159 N.ar    1  UNL1       -0.1416
      9 C          65.6134   91.9485   14.0325 C.ar    1  UNL1        0.1333
     10 S          65.3378   90.9354   15.1039 S.2     1  UNL1       -0.0604
     11 C          64.4057   89.9050   14.5388 C.ar    1  UNL1        0.0971
     12 C          64.1052   90.2812   13.1181 C.ar    1  UNL1        0.0538
     13 N          63.2146   89.5269   12.1758 N.pl3   1  UNL1       -0.3564
     14 C          64.8516   91.5442   12.8053 C.ar    1  UNL1        0.0363
     15 C          64.9361   92.3782   11.5614 C.ar    1  UNL1       -0.0033
     16 C          64.1742   91.9738   10.3341 C.3     1  UNL1        0.0324
     17 H          62.7657   88.7036   12.4755 H       1  UNL1        0.1424
     18 H          63.0790   89.8552   11.2576 H       1  UNL1        0.1424
     19 C          63.8033   86.1364   15.6272 C.3     1  UNL1        0.1166
     20 C          63.5663   84.8529   14.8880 C.ar    1  UNL1       -0.0025
     21 C          62.3987   83.9836   15.2497 C.ar    1  UNL1       -0.0018
     22 C          62.1618   82.7001   14.5105 C.ar    1  UNL1        0.0147
     23 C          63.0925   82.2859   13.4095 C.ar    1  UNL1        0.1228
     24 C          64.2601   83.1552   13.0477 C.ar    1  UNL1        0.0147
     25 C          64.4970   84.4387   13.7869 C.ar    1  UNL1       -0.0018
     26 S          62.8555   81.0024   12.6702 S.3     1  UNL1        0.3126
     27 F          62.8501   81.0160   14.1701 F       1  UNL1       -0.0934
     28 F          62.6132   79.7325   13.4309 F       1  UNL1       -0.0934
     29 F          62.8609   80.9888   11.1703 F       1  UNL1       -0.0934
     30 F          62.6186   79.7189   11.9310 F       1  UNL1       -0.0934
     31 F          63.0978   82.2723   11.9095 F       1  UNL1       -0.0934
@<TRIPOS>BOND
     1     5     6    1
     2     6     7   ar
     3     7     8   ar
     4     8     9   ar
     5     9    10   ar
     6    10    11   ar
     7    11     1    1
     8     1     2    2
     9     1     3   am
    10     3    19    1
    11    19    20    1
    12    20    21   ar
    13    21    22   ar
    14    22    23   ar
    15    23    26    1
    16    26    27    1
    17    26    28    1
    18    26    29    1
    19    26    30    1
    20    26    31    1
    21    23    24   ar
    22    24    25   ar
    23    11    12   ar
    24    12    13    1
    25    12    14   ar
    26    14    15   ar
    27    15    16    1
    28    15     6   ar
    29    14     9   ar
    30    25    20   ar
    31     3     4    1
    32    13    17    1
    33    13    18    1
@<TRIPOS>MOLECULE
*****
 31 33 0 0 0
SMALL
GASTEIGER

@<TRIPOS>ATOM
      1 C          62.2264   90.0113   11.1155 C.2     1  UNL1        0.2534
      2 O          61.6651   90.4725    9.8031 O.2     1  UNL1       -0.2695
      3 N          61.6788   88.7801   11.7743 N.am    1  UNL1       -0.2965
      4 H          62.0472   88.4774   12.6356 H       1  UNL1        0.1501
      5 C          67.4815   93.4647   15.8146 C.3     1  UNL1        0.0537
      6 C          66.7421   93.0491   14.5775 C.ar    1  UNL1        0.0771
      7 N          67.1841   93.5516   13.2351 N.ar    1  UNL1       -0.1522
      8 N          66.4446   93.1359   11.9980 N.ar    1  UNL1       -0.1416
      9 C          65.2632   92.2177   12.1033 C.ar    1  UNL1        0.1333
     10 S          64.3450   91.6406   11.0670 S.2     1  UNL1       -0.0604
     11 C          63.3355   90.7814   11.7690 C.ar    1  UNL1        0.0971
     12 C          63.6298   90.8275   13.2391 C.ar    1  UNL1        0.0538
     13 N          62.8667   90.1116   14.3139 N.pl3   1  UNL1       -0.3564
     14 C          64.8212   91.7152   13.4457 C.ar    1  UNL1        0.0363
     15 C          65.5606   92.1309   14.6828 C.ar    1  UNL1       -0.0033
     16 C          65.1186   91.6284   16.0252 C.3     1  UNL1        0.0324
     17 H          62.0944   89.5486   14.0776 H       1  UNL1        0.1424
     18 H          63.1382   90.2047   15.2556 H       1  UNL1        0.1424
     19 C          60.5698   88.0100   11.1208 C.3     1  UNL1        0.1166
     20 C          60.8557   87.1541    9.9225 C.ar    1  UNL1       -0.0025
     21 C          59.8044   86.9619    8.8701 C.ar    1  UNL1       -0.0018
     22 C          60.0904   86.1061    7.6719 C.ar    1  UNL1        0.0147
     23 C          61.4277   85.4425    7.5261 C.ar    1  UNL1        0.1228
     24 C          62.4790   85.6346    8.5786 C.ar    1  UNL1        0.0147
     25 C          62.1930   86.4905    9.7768 C.ar    1  UNL1       -0.0018
     26 S          61.7136   84.5866    6.3279 S.3     1  UNL1        0.3126
     27 F          62.8415   85.2457    7.0651 F       1  UNL1       -0.0934
     28 F          63.1273   84.3899    5.8668 F       1  UNL1       -0.0934
     29 F          60.5857   83.9275    5.5907 F       1  UNL1       -0.0934
     30 F          61.9995   83.7307    5.1296 F       1  UNL1       -0.0934
     31 F          60.2998   84.7833    6.7889 F       1  UNL1       -0.0934
@<TRIPOS>BOND
     1     5     6    1
     2     6     7   ar
     3     7     8   ar
     4     8     9   ar
     5     9    10   ar
     6    10    11   ar
     7    11     1    1
     8     1     2    2
     9     1     3   am
    10     3    19    1
    11    19    20    1
    12    20    21   ar
    13    21    22   ar
    14    22    23   ar
    15    23    26    1
    16    26    27    1
    17    26    28    1
    18    26    29    1
    19    26    30    1
    20    26    31    1
    21    23    24   ar
    22    24    25   ar
    23    11    12   ar
    24    12    13    1
    25    12    14   ar
    26    14    15   ar
    27    15    16    1
    28    15     6   ar
    29    14     9   ar
    30    25    20   ar
    31     3     4    1
    32    13    17    1
    33    13    18    1
@<TRIPOS>MOLECULE
*****
 31 33 0 0 0
SMALL
GASTEIGER

@<TRIPOS>ATOM
      1 C          61.9105   89.8015   11.3264 C.2     1  UNL1        0.2534
      2 O          61.7286   90.3102    9.9270 O.2     1  UNL1       -0.2695
      3 N          61.0819   88.6529   11.8204 N.am    1  UNL1       -0.2965
      4 H          61.2013   88.3190   12.7389 H       1  UNL1        0.1501
      5 C          67.6467   93.8679   14.8169 C.3     1  UNL1        0.0537
      6 C          66.4989   92.9241   14.6128 C.ar    1  UNL1        0.0771
      7 N          65.9533   92.1448   15.7726 N.ar    1  UNL1       -0.1522
      8 N          64.8054   91.2010   15.5685 N.ar    1  UNL1       -0.1416
      9 C          64.2031   91.0365   14.2046 C.ar    1  UNL1        0.1333
     10 S          63.0735   90.1871   13.7021 S.2     1  UNL1       -0.0604
     11 C          62.9210   90.4414   12.2316 C.ar    1  UNL1        0.0971
     12 C          63.9563   91.4479   11.8254 C.ar    1  UNL1        0.0538
     13 N          64.1629   91.9913   10.4427 N.pl3   1  UNL1       -0.3564
     14 C          64.7487   91.8157   13.0449 C.ar    1  UNL1        0.0363
     15 C          65.8966   92.7595   13.2490 C.ar    1  UNL1       -0.0033
     16 C          66.4421   93.5388   12.0891 C.3     1  UNL1        0.0324
     17 H          63.5887   91.6869    9.7032 H       1  UNL1        0.1424
     18 H          64.8728   92.6524   10.2746 H       1  UNL1        0.1424
     19 C          60.0715   88.0130   10.9152 C.3     1  UNL1        0.1166
     20 C          60.5259   87.1554    9.7714 C.ar    1  UNL1       -0.0025
     21 C          59.6128   86.9139    8.6061 C.ar    1  UNL1       -0.0018
     22 C          60.0673   86.0563    7.4624 C.ar    1  UNL1        0.0147
     23 C          61.4347   85.4402    7.4841 C.ar    1  UNL1        0.1228
     24 C          62.3478   85.6817    8.6494 C.ar    1  UNL1        0.0147
     25 C          61.8934   86.5393    9.7930 C.ar    1  UNL1       -0.0018
     26 S          61.8891   84.5826    6.3403 S.3     1  UNL1        0.3126
     27 F          60.4249   84.7348    6.6281 F       1  UNL1       -0.0934
     28 F          60.8793   83.8773    5.4844 F       1  UNL1       -0.0934
     29 F          63.3534   84.4304    6.0526 F       1  UNL1       -0.0934
     30 F          62.3435   83.7251    5.1966 F       1  UNL1       -0.0934
     31 F          62.8990   85.2880    7.1963 F       1  UNL1       -0.0934
@<TRIPOS>BOND
     1     5     6    1
     2     6     7   ar
     3     7     8   ar
     4     8     9   ar
     5     9    10   ar
     6    10    11   ar
     7    11     1    1
     8     1     2    2
     9     1     3   am
    10     3    19    1
    11    19    20    1
    12    20    21   ar
    13    21    22   ar
    14    22    23   ar
    15    23    26    1
    16    26    27    1
    17    26    28    1
    18    26    29    1
    19    26    30    1
    20    26    31    1
    21    23    24   ar
    22    24    25   ar
    23    11    12   ar
    24    12    13    1
    25    12    14   ar
    26    14    15   ar
    27    15    16    1
    28    15     6   ar
    29    14     9   ar
    30    25    20   ar
    31     3     4    1
    32    13    17    1
    33    13    18    1
@<TRIPOS>MOLECULE
*****
 31 33 0 0 0
SMALL
GASTEIGER

@<TRIPOS>ATOM
      1 C          63.8542   88.7499   14.7373 C.2     1  UNL1        0.2534
      2 O          63.0815   88.9891   16.0006 O.2     1  UNL1       -0.2695
      3 N          64.2831   87.3597   14.3723 N.am    1  UNL1       -0.2965
      4 H          64.7902   87.2028   13.5432 H       1  UNL1        0.1501
      5 C          66.4734   95.2532   11.2059 C.3     1  UNL1        0.0537
      6 C          65.7488   93.9613   11.4423 C.ar    1  UNL1        0.0771
      7 N          64.8949   93.3712   10.3595 N.ar    1  UNL1       -0.1522
      8 N          64.1704   92.0792   10.5959 N.ar    1  UNL1       -0.1416
      9 C          64.2997   91.3774   11.9153 C.ar    1  UNL1        0.1333
     10 S          63.7090   90.1003   12.4350 S.2     1  UNL1       -0.0604
     11 C          64.1979   89.9011   13.8390 C.ar    1  UNL1        0.0971
     12 C          65.0906   91.0551   14.1871 C.ar    1  UNL1        0.0538
     13 N          65.7966   91.2606   15.4946 N.pl3   1  UNL1       -0.3564
     14 C          65.1536   91.9675   12.9981 C.ar    1  UNL1        0.0363
     15 C          65.8781   93.2594   12.7617 C.ar    1  UNL1       -0.0033
     16 C          66.7320   93.8495   13.8446 C.3     1  UNL1        0.0324
     17 H          65.6925   90.6022   16.2190 H       1  UNL1        0.1424
     18 H          66.3640   92.0540   15.6282 H       1  UNL1        0.1424
     19 C          63.9395   86.2087   15.2705 C.3     1  UNL1        0.1166
     20 C          63.6438   84.8607   14.6825 C.ar    1  UNL1       -0.0025
     21 C          62.4415   84.0898   15.1410 C.ar    1  UNL1       -0.0018
     22 C          62.1459   82.7419   14.5530 C.ar    1  UNL1        0.0147
     23 C          63.0525   82.1650   13.5065 C.ar    1  UNL1        0.1228
     24 C          64.2547   82.9359   13.0480 C.ar    1  UNL1        0.0147
     25 C          64.5504   84.2837   13.6360 C.ar    1  UNL1       -0.0018
     26 S          62.7568   80.8170   12.9185 S.3     1  UNL1        0.3126
     27 F          62.7354   81.0073   14.4062 F       1  UNL1       -0.0934
     28 F          62.4397   79.6595   13.8182 F       1  UNL1       -0.0934
     29 F          62.7783   80.6267   11.4308 F       1  UNL1       -0.0934
     30 F          62.4612   79.4691   12.3305 F       1  UNL1       -0.0934
     31 F          63.0740   81.9746   12.0188 F       1  UNL1       -0.0934
@<TRIPOS>BOND
     1     5     6    1
     2     6     7   ar
     3     7     8   ar
     4     8     9   ar
     5     9    10   ar
     6    10    11   ar
     7    11     1    1
     8     1     2    2
     9     1     3   am
    10     3    19    1
    11    19    20    1
    12    20    21   ar
    13    21    22   ar
    14    22    23   ar
    15    23    26    1
    16    26    27    1
    17    26    28    1
    18    26    29    1
    19    26    30    1
    20    26    31    1
    21    23    24   ar
    22    24    25   ar
    23    11    12   ar
    24    12    13    1
    25    12    14   ar
    26    14    15   ar
    27    15    16    1
    28    15     6   ar
    29    14     9   ar
    30    25    20   ar
    31     3     4    1
    32    13    17    1
    33    13    18    1
@<TRIPOS>MOLECULE
*****
 31 33 0 0 0
SMALL
GASTEIGER

@<TRIPOS>ATOM
      1 C          63.9152   88.1277   15.2331 C.2     1  UNL1        0.2534
      2 O          63.2696   88.6013   16.5016 O.2     1  UNL1       -0.2695
      3 N          64.6628   89.0960   14.3652 N.am    1  UNL1       -0.2965
      4 H          65.0865   88.7852   13.5327 H       1  UNL1        0.1501
      5 C          62.9744   81.1334   11.7953 C.3     1  UNL1        0.0537
      6 C          63.2709   82.1757   12.8325 C.ar    1  UNL1        0.0771
      7 N          63.6871   81.7628   14.2131 N.ar    1  UNL1       -0.1522
      8 N          63.9837   82.8051   15.2503 N.ar    1  UNL1       -0.1416
      9 C          63.8640   84.2603   14.9068 C.ar    1  UNL1        0.1333
     10 S          64.0898   85.5041   15.7142 S.2     1  UNL1       -0.0604
     11 C          63.8131   86.6858   14.8326 C.ar    1  UNL1        0.0971
     12 C          63.4163   86.1723   13.4803 C.ar    1  UNL1        0.0538
     13 N          63.0520   87.0105   12.2909 N.pl3   1  UNL1       -0.3564
     14 C          63.4478   84.6732   13.5261 C.ar    1  UNL1        0.0363
     15 C          63.1513   83.6309   12.4890 C.ar    1  UNL1       -0.0033
     16 C          62.7351   84.0439   11.1083 C.3     1  UNL1        0.0324
     17 H          63.0608   87.9926   12.3596 H       1  UNL1        0.1424
     18 H          62.8042   86.5786   11.4416 H       1  UNL1        0.1424
     19 C          64.7649   90.5379   14.7657 C.3     1  UNL1        0.1166
     20 C          65.1811   91.5685   13.7583 C.ar    1  UNL1       -0.0025
     21 C          66.1475   92.6484   14.1454 C.ar    1  UNL1       -0.0018
     22 C          66.5636   93.6789   13.1380 C.ar    1  UNL1        0.0147
     23 C          66.0132   93.6296   11.7435 C.ar    1  UNL1        0.1228
     24 C          65.0467   92.5498   11.3564 C.ar    1  UNL1        0.0147
     25 C          64.6307   91.5192   12.3638 C.ar    1  UNL1       -0.0018
     26 S          66.4293   94.6602   10.7361 S.3     1  UNL1        0.3126
     27 F          66.1309   95.0692   12.1481 F       1  UNL1       -0.0934
     28 F          66.5470   96.0998   11.1407 F       1  UNL1       -0.0934
     29 F          66.7276   94.2511    9.3242 F       1  UNL1       -0.0934
     30 F          66.8454   95.6907    9.7288 F       1  UNL1       -0.0934
     31 F          66.3115   93.2205   10.3316 F       1  UNL1       -0.0934
@<TRIPOS>BOND
     1     5     6    1
     2     6     7   ar
     3     7     8   ar
     4     8     9   ar
     5     9    10   ar
     6    10    11   ar
     7    11     1    1
     8     1     2    2
     9     1     3   am
    10     3    19    1
    11    19    20    1
    12    20    21   ar
    13    21    22   ar
    14    22    23   ar
    15    23    26    1
    16    26    27    1
    17    26    28    1
    18    26    29    1
    19    26    30    1
    20    26    31    1
    21    23    24   ar
    22    24    25   ar
    23    11    12   ar
    24    12    13    1
    25    12    14   ar
    26    14    15   ar
    27    15    16    1
    28    15     6   ar
    29    14     9   ar
    30    25    20   ar
    31     3     4    1
    32    13    17    1
    33    13    18    1
@<TRIPOS>MOLECULE
*****
 31 33 0 0 0
SMALL
GASTEIGER

@<TRIPOS>ATOM
      1 C          62.5795   89.0967   11.8080 C.2     1  UNL1        0.2534
      2 O          61.1853   89.4323   11.3681 O.2     1  UNL1       -0.2695
      3 N          63.0178   87.6642   11.8835 N.am    1  UNL1       -0.2965
      4 H          63.9329   87.4439   12.1722 H       1  UNL1        0.1501
      5 C          67.6659   94.1268   15.0408 C.3     1  UNL1        0.0537
      6 C          66.7501   93.4794   14.0446 C.ar    1  UNL1        0.0771
      7 N          66.5743   94.0846   12.6835 N.ar    1  UNL1       -0.1522
      8 N          65.6586   93.4372   11.6874 N.ar    1  UNL1       -0.1416
      9 C          64.9186   92.1845   12.0524 C.ar    1  UNL1        0.1333
     10 S          63.9552   91.3282   11.2853 S.2     1  UNL1       -0.0604
     11 C          63.5355   90.1937   12.1724 C.ar    1  UNL1        0.0971
     12 C          64.2396   90.3489   13.4877 C.ar    1  UNL1        0.0538
     13 N          64.1114   89.4343   14.6697 N.pl3   1  UNL1       -0.3564
     14 C          65.0944   91.5793   13.4136 C.ar    1  UNL1        0.0363
     15 C          66.0102   92.2268   14.4097 C.ar    1  UNL1       -0.0033
     16 C          66.1860   91.6215   15.7709 C.3     1  UNL1        0.0324
     17 H          63.5217   88.6474   14.6216 H       1  UNL1        0.1424
     18 H          64.6170   89.6209   15.4936 H       1  UNL1        0.1424
     19 C          62.0619   86.5672   11.5192 C.3     1  UNL1        0.1166
     20 C          62.2951   85.1723   12.0192 C.ar    1  UNL1       -0.0025
     21 C          62.4135   84.0368   11.0463 C.ar    1  UNL1       -0.0018
     22 C          62.6467   82.6420   11.5463 C.ar    1  UNL1        0.0147
     23 C          62.7615   82.3827   13.0192 C.ar    1  UNL1        0.1228
     24 C          62.6431   83.5182   13.9921 C.ar    1  UNL1        0.0147
     25 C          62.4099   84.9130   13.4921 C.ar    1  UNL1       -0.0018
     26 S          62.9947   80.9878   13.5192 S.3     1  UNL1        0.3126
     27 F          64.0780   82.0184   13.6391 F       1  UNL1       -0.0934
     28 F          64.3112   80.6235   14.1391 F       1  UNL1       -0.0934
     29 F          61.9114   79.9572   13.3994 F       1  UNL1       -0.0934
     30 F          63.2279   79.5929   14.0192 F       1  UNL1       -0.0934
     31 F          61.6782   81.3521   12.8993 F       1  UNL1       -0.0934
@<TRIPOS>BOND
     1     5     6    1
     2     6     7   ar
     3     7     8   ar
     4     8     9   ar
     5     9    10   ar
     6    10    11   ar
     7    11     1    1
     8     1     2    2
     9     1     3   am
    10     3    19    1
    11    19    20    1
    12    20    21   ar
    13    21    22   ar
    14    22    23   ar
    15    23    26    1
    16    26    27    1
    17    26    28    1
    18    26    29    1
    19    26    30    1
    20    26    31    1
    21    23    24   ar
    22    24    25   ar
    23    11    12   ar
    24    12    13    1
    25    12    14   ar
    26    14    15   ar
    27    15    16    1
    28    15     6   ar
    29    14     9   ar
    30    25    20   ar
    31     3     4    1
    32    13    17    1
    33    13    18    1
@<TRIPOS>MOLECULE
*****
 31 33 0 0 0
SMALL
GASTEIGER

@<TRIPOS>ATOM
      1 C          63.6026   87.8962   14.9555 C.2     1  UNL1        0.2534
      2 O          62.8270   87.8999   16.2394 O.2     1  UNL1       -0.2695
      3 N          63.9143   86.5982   14.2714 N.am    1  UNL1       -0.2965
      4 H          64.4233   86.5958   13.4287 H       1  UNL1        0.1501
      5 C          65.3916   94.1464   10.5558 C.3     1  UNL1        0.0537
      6 C          65.2866   93.2248   11.7346 C.ar    1  UNL1        0.0771
      7 N          65.8799   93.6232   13.0533 N.ar    1  UNL1       -0.1522
      8 N          65.7749   92.7016   14.2321 N.ar    1  UNL1       -0.1416
      9 C          65.0767   91.3815   14.0922 C.ar    1  UNL1        0.1333
     10 S          64.8189   90.2737   15.0701 S.2     1  UNL1       -0.0604
     11 C          64.0663   89.1905   14.3557 C.ar    1  UNL1        0.0971
     12 C          63.8589   89.6288   12.9363 C.ar    1  UNL1        0.0538
     13 N          63.1514   88.8499   11.8673 N.pl3   1  UNL1       -0.3564
     14 C          64.4834   90.9830   12.7734 C.ar    1  UNL1        0.0363
     15 C          64.5884   91.9046   11.5946 C.ar    1  UNL1       -0.0033
     16 C          63.9950   91.5061   10.2758 C.3     1  UNL1        0.0324
     17 H          62.7727   87.9646   12.0724 H       1  UNL1        0.1424
     18 H          63.0657   89.2240   10.9607 H       1  UNL1        0.1424
     19 C          63.4506   85.3040   14.8712 C.3     1  UNL1        0.1166
     20 C          63.3094   84.0853   14.0080 C.ar    1  UNL1       -0.0025
     21 C          64.2350   83.8779   12.8461 C.ar    1  UNL1       -0.0018
     22 C          64.0938   82.6592   11.9830 C.ar    1  UNL1        0.0147
     23 C          63.0271   81.6480   12.2819 C.ar    1  UNL1        0.1228
     24 C          62.1015   81.8554   13.4439 C.ar    1  UNL1        0.0147
     25 C          62.2426   83.0740   14.3070 C.ar    1  UNL1       -0.0018
     26 S          62.8859   80.4293   11.4188 S.3     1  UNL1        0.3126
     27 F          62.3126   80.4371   12.8049 F       1  UNL1       -0.0934
     28 F          62.1714   79.2185   11.9418 F       1  UNL1       -0.0934
     29 F          63.4592   80.4214   10.0327 F       1  UNL1       -0.0934
     30 F          62.7448   79.2107   10.5557 F       1  UNL1       -0.0934
     31 F          63.6004   81.6401   10.8959 F       1  UNL1       -0.0934
@<TRIPOS>BOND
     1     5     6    1
     2     6     7   ar
     3     7     8   ar
     4     8     9   ar
     5     9    10   ar
     6    10    11   ar
     7    11     1    1
     8     1     2    2
     9     1     3   am
    10     3    19    1
    11    19    20    1
    12    20    21   ar
    13    21    22   ar
    14    22    23   ar
    15    23    26    1
    16    26    27    1
    17    26    28    1
    18    26    29    1
    19    26    30    1
    20    26    31    1
    21    23    24   ar
    22    24    25   ar
    23    11    12   ar
    24    12    13    1
    25    12    14   ar
    26    14    15   ar
    27    15    16    1
    28    15     6   ar
    29    14     9   ar
    30    25    20   ar
    31     3     4    1
    32    13    17    1
    33    13    18    1
@<TRIPOS>MOLECULE
*****
 31 33 0 0 0
SMALL
GASTEIGER

@<TRIPOS>ATOM
      1 C          62.7901   88.2165   12.0222 C.2     1  UNL1        0.2534
      2 O          62.2018   88.8757   10.8100 O.2     1  UNL1       -0.2695
      3 N          63.2978   89.0532   13.1589 N.am    1  UNL1       -0.2965
      4 H          63.6839   88.6206   13.9545 H       1  UNL1        0.1501
      5 C          63.7520   80.6317   13.8024 C.3     1  UNL1        0.0537
      6 C          63.4082   81.8774   13.0407 C.ar    1  UNL1        0.0771
      7 N          62.8599   81.7776   11.6481 N.ar    1  UNL1       -0.1522
      8 N          62.5161   83.0233   10.8864 N.ar    1  UNL1       -0.1416
      9 C          62.7204   84.3686   11.5174 C.ar    1  UNL1        0.1333
     10 S          62.4744   85.7605   11.0153 S.2     1  UNL1       -0.0604
     11 C          62.8706   86.7205   12.0977 C.ar    1  UNL1        0.0971
     12 C          63.3615   85.9220   13.2687 C.ar    1  UNL1        0.0538
     13 N          63.8580   86.4791   14.5699 N.pl3   1  UNL1       -0.3564
     14 C          63.2687   84.4684   12.9100 C.ar    1  UNL1        0.0363
     15 C          63.6125   83.2227   13.6717 C.ar    1  UNL1       -0.0033
     16 C          64.1608   83.3225   15.0644 C.3     1  UNL1        0.0324
     17 H          63.8811   87.4530   14.7115 H       1  UNL1        0.1424
     18 H          64.1608   85.8707   15.2822 H       1  UNL1        0.1424
     19 C          63.2172   90.5491   13.0833 C.3     1  UNL1        0.1166
     20 C          64.2681   91.3203   12.3410 C.ar    1  UNL1       -0.0025
     21 C          65.5481   91.6955   13.0272 C.ar    1  UNL1       -0.0018
     22 C          66.5989   92.4666   12.2849 C.ar    1  UNL1        0.0147
     23 C          66.3697   92.8627   10.8563 C.ar    1  UNL1        0.1228
     24 C          65.0897   92.4875   10.1702 C.ar    1  UNL1        0.0147
     25 C          64.0389   91.7164   10.9125 C.ar    1  UNL1       -0.0018
     26 S          67.4206   93.6339   10.1140 S.3     1  UNL1        0.3126
     27 F          67.3775   92.1378   10.0142 F       1  UNL1       -0.0934
     28 F          68.4283   92.9090    9.2719 F       1  UNL1       -0.0934
     29 F          67.4637   95.1299   10.2138 F       1  UNL1       -0.0934
     30 F          68.4714   94.4051    9.3717 F       1  UNL1       -0.0934
     31 F          66.4128   94.3587   10.9561 F       1  UNL1       -0.0934
@<TRIPOS>BOND
     1     5     6    1
     2     6     7   ar
     3     7     8   ar
     4     8     9   ar
     5     9    10   ar
     6    10    11   ar
     7    11     1    1
     8     1     2    2
     9     1     3   am
    10     3    19    1
    11    19    20    1
    12    20    21   ar
    13    21    22   ar
    14    22    23   ar
    15    23    26    1
    16    26    27    1
    17    26    28    1
    18    26    29    1
    19    26    30    1
    20    26    31    1
    21    23    24   ar
    22    24    25   ar
    23    11    12   ar
    24    12    13    1
    25    12    14   ar
    26    14    15   ar
    27    15    16    1
    28    15     6   ar
    29    14     9   ar
    30    25    20   ar
    31     3     4    1
    32    13    17    1
    33    13    18    1
@<TRIPOS>MOLECULE
*****
 31 33 0 0 0
SMALL
GASTEIGER

@<TRIPOS>ATOM
      1 C          59.7706   88.4296    8.0668 C.2     1  UNL1        0.2534
      2 O          58.7449   87.4484    7.5819 O.2     1  UNL1       -0.2695
      3 N          59.9480   89.7403    7.3592 N.am    1  UNL1       -0.2965
      4 H          60.6212   90.3843    7.6774 H       1  UNL1        0.1501
      5 C          64.4645   88.1900   14.3544 C.3     1  UNL1        0.0537
      6 C          63.5617   87.7489   13.2406 C.ar    1  UNL1        0.0771
      7 N          63.2254   86.2962   13.0785 N.ar    1  UNL1       -0.1522
      8 N          62.3226   85.8551   11.9647 N.ar    1  UNL1       -0.1416
      9 C          61.7561   86.8668   11.0131 C.ar    1  UNL1        0.1333
     10 S          60.8454   86.7312    9.8290 S.2     1  UNL1       -0.0604
     11 C          60.6189   88.1002    9.2592 C.ar    1  UNL1        0.0971
     12 C          61.3896   89.0819   10.0913 C.ar    1  UNL1        0.0538
     13 N          61.4474   90.5654    9.8770 N.pl3   1  UNL1       -0.3564
     14 C          62.0925   88.3195   11.1753 C.ar    1  UNL1        0.0363
     15 C          62.9953   88.7606   12.2890 C.ar    1  UNL1       -0.0033
     16 C          63.3316   90.2135   12.4511 C.3     1  UNL1        0.0324
     17 H          60.9487   90.9751    9.1336 H       1  UNL1        0.1424
     18 H          61.9840   91.1292   10.4798 H       1  UNL1        0.1424
     19 C          59.0998   90.0697    6.1668 C.3     1  UNL1        0.1166
     20 C          59.6450   90.9444    5.0770 C.ar    1  UNL1       -0.0025
     21 C          58.7238   91.8388    4.3016 C.ar    1  UNL1       -0.0018
     22 C          59.2690   92.7135    3.2119 C.ar    1  UNL1        0.0147
     23 C          60.7356   92.6938    2.8976 C.ar    1  UNL1        0.1228
     24 C          61.6569   91.7995    3.6730 C.ar    1  UNL1        0.0147
     25 C          61.1116   90.9248    4.7627 C.ar    1  UNL1       -0.0018
     26 S          61.2809   93.5686    1.8078 S.3     1  UNL1        0.3126
     27 F          60.3106   94.1294    2.8048 F       1  UNL1       -0.0934
     28 F          60.8559   95.0041    1.7151 F       1  UNL1       -0.0934
     29 F          62.2512   93.0078    0.8108 F       1  UNL1       -0.0934
     30 F          61.8262   94.4433    0.7181 F       1  UNL1       -0.0934
     31 F          61.7059   92.1330    1.9006 F       1  UNL1       -0.0934
@<TRIPOS>BOND
     1     5     6    1
     2     6     7   ar
     3     7     8   ar
     4     8     9   ar
     5     9    10   ar
     6    10    11   ar
     7    11     1    1
     8     1     2    2
     9     1     3   am
    10     3    19    1
    11    19    20    1
    12    20    21   ar
    13    21    22   ar
    14    22    23   ar
    15    23    26    1
    16    26    27    1
    17    26    28    1
    18    26    29    1
    19    26    30    1
    20    26    31    1
    21    23    24   ar
    22    24    25   ar
    23    11    12   ar
    24    12    13    1
    25    12    14   ar
    26    14    15   ar
    27    15    16    1
    28    15     6   ar
    29    14     9   ar
    30    25    20   ar
    31     3     4    1
    32    13    17    1
    33    13    18    1
