@<TRIPOS>MOLECULE
*****
 37 40 0 0 0
SMALL
GASTEIGER

@<TRIPOS>ATOM
      1 C          65.8274   92.9568   12.8415 C.ar    1  UNL1        0.0930
      2 C          66.3309   93.6416   14.0774 C.ar    1  UNL1        0.1067
      3 N          65.9451   92.8046   15.2609 N.ar    1  UNL1       -0.2252
      4 C          65.2032   91.6025   14.7564 C.ar    1  UNL1        0.1586
      5 N          64.5845   90.4344   15.4654 N.ar    1  UNL1       -0.3349
      6 C          63.8930   89.3604   14.6791 C.ar    1  UNL1        0.0945
      7 C          63.8202   89.4544   13.1838 C.ar    1  UNL1        0.1176
      8 N          64.4390   90.6225   12.4748 N.ar    1  UNL1       -0.2390
      9 C          65.1305   91.6965   13.2611 C.ar    1  UNL1        0.1210
     10 H          64.6322   90.3727   16.4468 H       1  UNL1        0.1675
     11 C          63.1287   88.3803   12.3975 C.ar    1  UNL1        0.1213
     12 N          63.2554   86.9027   12.6226 N.ar    1  UNL1       -0.1677
     13 N          62.3941   86.2044   11.6124 N.ar    1  UNL1       -0.2507
     14 C          61.7351   87.2505   10.7629 C.ar    1  UNL1        0.0816
     15 C          60.7803   87.1523    9.6103 C.ar    1  UNL1        0.0484
     16 C          60.2795   88.3987    8.9429 C.ar    1  UNL1        0.1416
     17 F          59.3246   88.3005    7.7902 F       1  UNL1       -0.2041
     18 C          60.7335   89.7436    9.4282 C.ar    1  UNL1        0.0298
     19 C          61.6883   89.8418   10.5808 C.ar    1  UNL1        0.0054
     20 C          62.1891   88.5953   11.2482 C.ar    1  UNL1        0.0383
     21 C          62.2221   84.7206   11.4755 C.3     1  UNL1        0.1293
     22 C          63.4196   83.8189   11.5268 C.3     1  UNL1        0.0516
     23 C          63.7061   83.0222   12.7650 C.3     1  UNL1        0.1530
     24 S          62.6302   82.1755   13.3777 S.O2    1  UNL1       -0.0082
     25 C          61.5542   81.3288   13.9904 C.3     1  UNL1        0.1760
     26 O          62.6854   81.2513   12.1975 O.2     1  UNL1       -0.1729
     27 O          62.5750   83.0997   14.5579 O.2     1  UNL1       -0.1729
     28 N          67.1274   94.3629   11.0856 N.am    1  UNL1       -0.3015
     29 C          65.9920   93.4462   11.4332 C.2     1  UNL1        0.2489
     30 O          65.0214   93.0191   10.3725 O.2     1  UNL1       -0.2700
     31 H          67.7646   94.6433   11.7818 H       1  UNL1        0.1497
     32 C          68.0948   93.6292    9.3461 C.3     1  UNL1        0.0222
     33 C          67.2920   94.8523    9.6773 C.3     1  UNL1        0.0841
     34 C          66.4892   96.0754   10.0085 C.3     1  UNL1        0.0222
     35 C          67.4566   95.3417    8.2690 C.3     1  UNL1        0.1549
     36 O          67.9459   96.7363    8.0119 O.3     1  UNL1       -0.3803
     37 H          67.2872   97.3737    8.3293 H       1  UNL1        0.2105
@<TRIPOS>BOND
     1    32    33    1
     2    33    34    1
     3    33    35    1
     4    35    36    1
     5    33    28    1
     6    28    29   am
     7    29    30    2
     8    29     1    1
     9     1     2   ar
    10     2     3   ar
    11     3     4   ar
    12     4     5   ar
    13     5     6   ar
    14     6     7   ar
    15     7    11    1
    16    11    12   ar
    17    12    13   ar
    18    13    21    1
    19    21    22    1
    20    22    23    1
    21    23    24    1
    22    24    25    1
    23    24    26    2
    24    24    27    2
    25    13    14   ar
    26    14    15   ar
    27    15    16   ar
    28    16    17    1
    29    16    18   ar
    30    18    19   ar
    31    19    20   ar
    32     7     8   ar
    33     8     9   ar
    34     9     1   ar
    35     9     4    1
    36    20    11   ar
    37    20    14   ar
    38    36    37    1
    39    28    31    1
    40     5    10    1
@<TRIPOS>MOLECULE
*****
 37 40 0 0 0
SMALL
GASTEIGER

@<TRIPOS>ATOM
      1 C          65.8714   93.1096   12.7538 C.ar    1  UNL1        0.0930
      2 C          66.4169   93.7756   13.9822 C.ar    1  UNL1        0.1067
      3 N          66.0557   92.9298   15.1671 N.ar    1  UNL1       -0.2252
      4 C          65.2869   91.7411   14.6711 C.ar    1  UNL1        0.1586
      5 N          64.6758   90.5719   15.3849 N.ar    1  UNL1       -0.3349
      6 C          63.9509   89.5138   14.6072 C.ar    1  UNL1        0.0945
      7 C          63.8370   89.6250   13.1156 C.ar    1  UNL1        0.1176
      8 N          64.4481   90.7942   12.4018 N.ar    1  UNL1       -0.2390
      9 C          65.1730   91.8522   13.1796 C.ar    1  UNL1        0.1210
     10 H          64.7506   90.4990   16.3639 H       1  UNL1        0.1675
     11 C          63.1121   88.5668   12.3379 C.ar    1  UNL1        0.1213
     12 N          63.2466   87.0850   12.5281 N.ar    1  UNL1       -0.1677
     13 N          62.3430   86.4071   11.5412 N.ar    1  UNL1       -0.2507
     14 C          61.6500   87.4699   10.7411 C.ar    1  UNL1        0.0816
     15 C          60.6476   87.3948    9.6278 C.ar    1  UNL1        0.0484
     16 C          60.1205   88.6543    9.0069 C.ar    1  UNL1        0.1416
     17 F          59.1180   88.5791    7.8935 F       1  UNL1       -0.2041
     18 C          60.5958   89.9892    9.4993 C.ar    1  UNL1        0.0298
     19 C          61.5982   90.0643   10.6126 C.ar    1  UNL1        0.0054
     20 C          62.1253   88.8047   11.2335 C.ar    1  UNL1        0.0383
     21 C          62.1639   84.9263   11.3823 C.3     1  UNL1        0.1293
     22 C          63.1231   83.9798   12.0412 C.3     1  UNL1        0.0516
     23 C          62.8845   83.5321   13.4527 C.3     1  UNL1        0.1530
     24 S          63.3683   84.3716   14.5978 S.O2    1  UNL1       -0.0082
     25 C          63.8522   85.2111   15.7428 C.3     1  UNL1        0.1760
     26 O          61.9524   84.7460   14.9217 O.2     1  UNL1       -0.1729
     27 O          64.7843   83.9973   14.2739 O.2     1  UNL1       -0.1729
     28 N          67.0232   94.6600   11.0160 N.am    1  UNL1       -0.3015
     29 C          66.0015   93.6126   11.3467 C.2     1  UNL1        0.2489
     30 O          65.1099   93.0685   10.2702 O.2     1  UNL1       -0.2700
     31 H          67.6084   95.0172   11.7225 H       1  UNL1        0.1497
     32 C          68.0717   94.0219    9.2859 C.3     1  UNL1        0.0222
     33 C          67.1533   95.1630    9.6088 C.3     1  UNL1        0.0841
     34 C          66.2348   96.3041    9.9319 C.3     1  UNL1        0.0222
     35 C          67.2833   95.6660    8.2018 C.3     1  UNL1        0.1549
     36 O          66.0545   95.9269    7.3819 O.3     1  UNL1       -0.3803
     37 H          65.5947   95.0897    7.2131 H       1  UNL1        0.2105
@<TRIPOS>BOND
     1    32    33    1
     2    33    34    1
     3    33    35    1
     4    35    36    1
     5    33    28    1
     6    28    29   am
     7    29    30    2
     8    29     1    1
     9     1     2   ar
    10     2     3   ar
    11     3     4   ar
    12     4     5   ar
    13     5     6   ar
    14     6     7   ar
    15     7    11    1
    16    11    12   ar
    17    12    13   ar
    18    13    21    1
    19    21    22    1
    20    22    23    1
    21    23    24    1
    22    24    25    1
    23    24    26    2
    24    24    27    2
    25    13    14   ar
    26    14    15   ar
    27    15    16   ar
    28    16    17    1
    29    16    18   ar
    30    18    19   ar
    31    19    20   ar
    32     7     8   ar
    33     8     9   ar
    34     9     1   ar
    35     9     4    1
    36    20    11   ar
    37    20    14   ar
    38    36    37    1
    39    28    31    1
    40     5    10    1
@<TRIPOS>MOLECULE
*****
 37 40 0 0 0
SMALL
GASTEIGER

@<TRIPOS>ATOM
      1 C          63.9230   85.3361   14.4421 C.ar    1  UNL1        0.0930
      2 C          64.6367   86.0300   15.5642 C.ar    1  UNL1        0.1067
      3 N          64.6274   87.5026   15.2790 N.ar    1  UNL1       -0.2252
      4 C          63.9079   87.7188   13.9806 C.ar    1  UNL1        0.1586
      5 N          63.5930   88.9619   13.2026 N.ar    1  UNL1       -0.3349
      6 C          62.8427   88.8660   11.9073 C.ar    1  UNL1        0.0945
      7 C          62.4073   87.5269   11.3901 C.ar    1  UNL1        0.1176
      8 N          62.7223   86.2838   12.1681 N.ar    1  UNL1       -0.2390
      9 C          63.4726   86.3798   13.4634 C.ar    1  UNL1        0.1210
     10 H          63.8787   89.8407   13.5420 H       1  UNL1        0.1675
     11 C          61.6570   87.4311   10.0947 C.ar    1  UNL1        0.1213
     12 N          60.5561   88.3447    9.6438 N.ar    1  UNL1       -0.1677
     13 N          60.0945   87.8831    8.2933 N.ar    1  UNL1       -0.2507
     14 C          60.9102   86.6841    7.9095 C.ar    1  UNL1        0.0816
     15 C          60.8984   85.8107    6.6902 C.ar    1  UNL1        0.0484
     16 C          61.8522   84.6579    6.5841 C.ar    1  UNL1        0.1416
     17 F          61.8404   83.7844    5.3646 F       1  UNL1       -0.2041
     18 C          62.8179   84.3785    7.6974 C.ar    1  UNL1        0.0298
     19 C          62.8297   85.2520    8.9168 C.ar    1  UNL1        0.0054
     20 C          61.8758   86.4048    9.0229 C.ar    1  UNL1        0.0383
     21 C          59.0080   88.5103    7.4710 C.3     1  UNL1        0.1293
     22 C          59.3605   89.4010    6.3167 C.3     1  UNL1        0.0516
     23 C          58.4393   90.5172    5.9222 C.3     1  UNL1        0.1530
     24 S          58.8944   91.5523    4.9366 S.O2    1  UNL1       -0.0082
     25 C          59.3497   92.5874    3.9511 C.3     1  UNL1        0.1760
     26 O          57.4823   92.0374    4.7939 O.2     1  UNL1       -0.1729
     27 O          60.3067   91.0672    5.0794 O.2     1  UNL1       -0.1729
     28 N          62.8348   83.3186   13.2189 N.am    1  UNL1       -0.3015
     29 C          63.6990   83.8579   14.3201 C.2     1  UNL1        0.2489
     30 O          64.3391   82.9190   15.2991 O.2     1  UNL1       -0.2700
     31 H          62.4147   83.9349   12.5763 H       1  UNL1        0.1497
     32 C          63.6015   81.7833   11.9720 C.3     1  UNL1        0.0222
     33 C          62.6108   81.8405   13.0969 C.3     1  UNL1        0.0841
     34 C          61.6201   81.8977   14.2218 C.3     1  UNL1        0.0222
     35 C          62.3868   80.3624   12.9749 C.3     1  UNL1        0.1549
     36 O          62.6760   79.6644   11.6790 O.3     1  UNL1       -0.3803
     37 H          62.0605   79.9785   10.9982 H       1  UNL1        0.2105
@<TRIPOS>BOND
     1    32    33    1
     2    33    34    1
     3    33    35    1
     4    35    36    1
     5    33    28    1
     6    28    29   am
     7    29    30    2
     8    29     1    1
     9     1     2   ar
    10     2     3   ar
    11     3     4   ar
    12     4     5   ar
    13     5     6   ar
    14     6     7   ar
    15     7    11    1
    16    11    12   ar
    17    12    13   ar
    18    13    21    1
    19    21    22    1
    20    22    23    1
    21    23    24    1
    22    24    25    1
    23    24    26    2
    24    24    27    2
    25    13    14   ar
    26    14    15   ar
    27    15    16   ar
    28    16    17    1
    29    16    18   ar
    30    18    19   ar
    31    19    20   ar
    32     7     8   ar
    33     8     9   ar
    34     9     1   ar
    35     9     4    1
    36    20    11   ar
    37    20    14   ar
    38    36    37    1
    39    28    31    1
    40     5    10    1
@<TRIPOS>MOLECULE
*****
 37 40 0 0 0
SMALL
GASTEIGER

@<TRIPOS>ATOM
      1 C          61.9070   86.7837   11.1364 C.ar    1  UNL1        0.0930
      2 C          60.7544   86.3275   10.2918 C.ar    1  UNL1        0.1067
      3 N          60.3061   87.4879    9.4537 N.ar    1  UNL1       -0.2252
      4 C          61.1817   88.6613    9.7803 C.ar    1  UNL1        0.1586
      5 N          61.2058   90.0698    9.2651 N.ar    1  UNL1       -0.3349
      6 C          62.2194   91.0431    9.7899 C.ar    1  UNL1        0.0945
      7 C          63.2088   90.6078   10.8299 C.ar    1  UNL1        0.1176
      8 N          63.1846   89.1993   11.3451 N.ar    1  UNL1       -0.2390
      9 C          62.1711   88.2261   10.8203 C.ar    1  UNL1        0.1210
     10 H          60.5564   90.3555    8.5825 H       1  UNL1        0.1675
     11 C          64.2224   91.5812   11.3546 C.ar    1  UNL1        0.1213
     12 N          64.9474   92.6188   10.5499 N.ar    1  UNL1       -0.1677
     13 N          65.8620   93.3667   11.4741 N.ar    1  UNL1       -0.2507
     14 C          65.7021   92.7912   12.8501 C.ar    1  UNL1        0.0816
     15 C          66.3484   93.1295   14.1608 C.ar    1  UNL1        0.0484
     16 C          65.9814   92.3643   15.3976 C.ar    1  UNL1        0.1416
     17 F          66.6277   92.7026   16.7083 F       1  UNL1       -0.2041
     18 C          64.9680   91.2608   15.3238 C.ar    1  UNL1        0.0298
     19 C          64.3217   90.9225   14.0131 C.ar    1  UNL1        0.0054
     20 C          64.6888   91.6877   12.7763 C.ar    1  UNL1        0.0383
     21 C          66.7759   94.4923   11.0898 C.3     1  UNL1        0.1293
     22 C          66.2654   95.9027   11.0797 C.3     1  UNL1        0.0516
     23 C          66.7157   96.8557   10.0124 C.3     1  UNL1        0.1530
     24 S          66.1234   96.7751    8.6367 S.O2    1  UNL1       -0.0082
     25 C          65.5313   96.6946    7.2608 C.3     1  UNL1        0.1760
     26 O          64.7456   96.8402    9.2259 O.2     1  UNL1       -0.1729
     27 O          67.5013   96.7100    8.0474 O.2     1  UNL1       -0.1729
     28 N          62.5004   84.4536   12.1207 N.am    1  UNL1       -0.3015
     29 C          62.6629   85.9448   12.1238 C.2     1  UNL1        0.2489
     30 O          63.5813   86.5970   13.1143 O.2     1  UNL1       -0.2700
     31 H          61.8976   84.0255   11.4706 H       1  UNL1        0.1497
     32 C          62.2551   83.9623   14.1697 C.3     1  UNL1        0.0222
     33 C          63.2563   83.6147   13.1081 C.3     1  UNL1        0.0841
     34 C          64.2574   83.2672   12.0465 C.3     1  UNL1        0.0222
     35 C          64.0121   82.7759   14.0955 C.3     1  UNL1        0.1549
     36 O          63.7794   81.2952   14.1551 O.3     1  UNL1       -0.3803
     37 H          62.8733   81.1221   14.4551 H       1  UNL1        0.2105
@<TRIPOS>BOND
     1    32    33    1
     2    33    34    1
     3    33    35    1
     4    35    36    1
     5    33    28    1
     6    28    29   am
     7    29    30    2
     8    29     1    1
     9     1     2   ar
    10     2     3   ar
    11     3     4   ar
    12     4     5   ar
    13     5     6   ar
    14     6     7   ar
    15     7    11    1
    16    11    12   ar
    17    12    13   ar
    18    13    21    1
    19    21    22    1
    20    22    23    1
    21    23    24    1
    22    24    25    1
    23    24    26    2
    24    24    27    2
    25    13    14   ar
    26    14    15   ar
    27    15    16   ar
    28    16    17    1
    29    16    18   ar
    30    18    19   ar
    31    19    20   ar
    32     7     8   ar
    33     8     9   ar
    34     9     1   ar
    35     9     4    1
    36    20    11   ar
    37    20    14   ar
    38    36    37    1
    39    28    31    1
    40     5    10    1
@<TRIPOS>MOLECULE
*****
 37 40 0 0 0
SMALL
GASTEIGER

@<TRIPOS>ATOM
      1 C          63.3739   85.3424   15.5617 C.ar    1  UNL1        0.0930
      2 C          62.6824   84.7842   16.7701 C.ar    1  UNL1        0.1067
      3 N          62.3394   85.9282   17.6776 N.ar    1  UNL1       -0.2252
      4 C          62.8190   87.1934   17.0301 C.ar    1  UNL1        0.1586
      5 N          62.7560   88.6284   17.4623 N.ar    1  UNL1       -0.3349
      6 C          63.3325   89.7013   16.5868 C.ar    1  UNL1        0.0945
      7 C          63.9718   89.3392   15.2791 C.ar    1  UNL1        0.1176
      8 N          64.0347   87.9043   14.8468 N.ar    1  UNL1       -0.2390
      9 C          63.4583   86.8314   15.7223 C.ar    1  UNL1        0.1210
     10 H          62.3364   88.8660   18.3206 H       1  UNL1        0.1675
     11 C          64.5483   90.4122   14.4035 C.ar    1  UNL1        0.1213
     12 N          64.2237   90.6385   12.9566 N.ar    1  UNL1       -0.1677
     13 N          65.0253   91.8134   12.4800 N.ar    1  UNL1       -0.2507
     14 C          65.8452   92.3132   13.6324 C.ar    1  UNL1        0.0816
     15 C          66.8222   93.4450   13.7529 C.ar    1  UNL1        0.0484
     16 C          67.5043   93.7109   15.0620 C.ar    1  UNL1        0.1416
     17 F          68.4813   94.8427   15.1825 F       1  UNL1       -0.2041
     18 C          67.2095   92.8449   16.2509 C.ar    1  UNL1        0.0298
     19 C          66.2325   91.7131   16.1304 C.ar    1  UNL1        0.0054
     20 C          65.5504   91.4473   14.8212 C.ar    1  UNL1        0.0383
     21 C          65.0097   92.3877   11.0944 C.3     1  UNL1        0.1293
     22 C          66.1880   93.1687   10.5929 C.3     1  UNL1        0.0516
     23 C          66.1406   94.6678   10.5731 C.3     1  UNL1        0.1530
     24 S          66.8344   95.4257    9.4803 S.O2    1  UNL1       -0.0082
     25 C          67.5283   96.1835    8.3875 C.3     1  UNL1        0.1760
     26 O          65.6387   96.3205    9.3417 O.2     1  UNL1       -0.1729
     27 O          68.0303   94.5307    9.6189 O.2     1  UNL1       -0.1729
     28 N          62.9367   83.7836   13.5296 N.am    1  UNL1       -0.3015
     29 C          63.8904   84.5506   14.3970 C.2     1  UNL1        0.2489
     30 O          65.3603   84.5258   14.0997 O.2     1  UNL1       -0.2700
     31 H          61.9719   83.7998   13.7247 H       1  UNL1        0.1497
     32 C          63.7062   81.8237   13.2714 C.3     1  UNL1        0.0222
     33 C          63.4532   82.9918   12.3650 C.3     1  UNL1        0.0841
     34 C          63.2001   84.1599   11.4586 C.3     1  UNL1        0.0222
     35 C          63.9696   82.2000   11.2004 C.3     1  UNL1        0.1549
     36 O          64.6960   82.8926   10.0856 O.3     1  UNL1       -0.3803
     37 H          64.0849   83.4854    9.6206 H       1  UNL1        0.2105
@<TRIPOS>BOND
     1    32    33    1
     2    33    34    1
     3    33    35    1
     4    35    36    1
     5    33    28    1
     6    28    29   am
     7    29    30    2
     8    29     1    1
     9     1     2   ar
    10     2     3   ar
    11     3     4   ar
    12     4     5   ar
    13     5     6   ar
    14     6     7   ar
    15     7    11    1
    16    11    12   ar
    17    12    13   ar
    18    13    21    1
    19    21    22    1
    20    22    23    1
    21    23    24    1
    22    24    25    1
    23    24    26    2
    24    24    27    2
    25    13    14   ar
    26    14    15   ar
    27    15    16   ar
    28    16    17    1
    29    16    18   ar
    30    18    19   ar
    31    19    20   ar
    32     7     8   ar
    33     8     9   ar
    34     9     1   ar
    35     9     4    1
    36    20    11   ar
    37    20    14   ar
    38    36    37    1
    39    28    31    1
    40     5    10    1
@<TRIPOS>MOLECULE
*****
 37 40 0 0 0
SMALL
GASTEIGER

@<TRIPOS>ATOM
      1 C          63.4125   85.2359   15.7288 C.ar    1  UNL1        0.0930
      2 C          62.8845   84.7254   17.0367 C.ar    1  UNL1        0.1067
      3 N          62.6299   85.9061   17.9262 N.ar    1  UNL1       -0.2252
      4 C          63.0004   87.1462   17.1680 C.ar    1  UNL1        0.1586
      5 N          62.9599   88.5990   17.5388 N.ar    1  UNL1       -0.3349
      6 C          63.4030   89.6377   16.5515 C.ar    1  UNL1        0.0945
      7 C          63.8867   89.2234   15.1934 C.ar    1  UNL1        0.1176
      8 N          63.9272   87.7706   14.8226 N.ar    1  UNL1       -0.2390
      9 C          63.4841   86.7320   15.8099 C.ar    1  UNL1        0.1210
     10 H          62.6424   88.8709   18.4302 H       1  UNL1        0.1675
     11 C          64.3298   90.2621   14.2060 C.ar    1  UNL1        0.1213
     12 N          65.3886   91.3001   14.4336 N.ar    1  UNL1       -0.1677
     13 N          65.5052   92.1247   13.1861 N.ar    1  UNL1       -0.2507
     14 C          64.5184   91.5964   12.1874 C.ar    1  UNL1        0.0816
     15 C          64.1875   92.0147   10.7855 C.ar    1  UNL1        0.0484
     16 C          63.1303   91.2821   10.0139 C.ar    1  UNL1        0.1416
     17 F          62.7993   91.7005    8.6119 F       1  UNL1       -0.2041
     18 C          62.4038   90.1310   10.6443 C.ar    1  UNL1        0.0298
     19 C          62.7348   89.7126   12.0462 C.ar    1  UNL1        0.0054
     20 C          63.7921   90.4453   12.8178 C.ar    1  UNL1        0.0383
     21 C          66.4437   93.2755   12.9743 C.3     1  UNL1        0.1293
     22 C          66.1747   94.2721   11.8861 C.3     1  UNL1        0.0516
     23 C          66.9132   94.1782   10.5839 C.3     1  UNL1        0.1530
     24 S          67.1047   95.4037    9.7403 S.O2    1  UNL1       -0.0082
     25 C          67.2963   96.6290    8.8966 C.3     1  UNL1        0.1760
     26 O          66.5904   96.2563   10.8620 O.2     1  UNL1       -0.1729
     27 O          67.6192   94.5509    8.6185 O.2     1  UNL1       -0.1729
     28 N          62.7414   83.7308   13.7201 N.am    1  UNL1       -0.3015
     29 C          63.8006   84.3974   14.5471 C.2     1  UNL1        0.2489
     30 O          65.2478   84.2255   14.1924 O.2     1  UNL1       -0.2700
     31 H          61.7915   83.8436   13.9529 H       1  UNL1        0.1497
     32 C          63.2316   81.6879   13.4267 C.3     1  UNL1        0.0222
     33 C          63.1296   82.8923   12.5384 C.3     1  UNL1        0.0841
     34 C          63.0276   84.0968   11.6503 C.3     1  UNL1        0.0222
     35 C          63.5177   82.0539   11.3568 C.3     1  UNL1        0.1549
     36 O          64.6520   82.4820   10.4735 O.3     1  UNL1       -0.3803
     37 H          64.4142   83.3046   10.0177 H       1  UNL1        0.2105
@<TRIPOS>BOND
     1    32    33    1
     2    33    34    1
     3    33    35    1
     4    35    36    1
     5    33    28    1
     6    28    29   am
     7    29    30    2
     8    29     1    1
     9     1     2   ar
    10     2     3   ar
    11     3     4   ar
    12     4     5   ar
    13     5     6   ar
    14     6     7   ar
    15     7    11    1
    16    11    12   ar
    17    12    13   ar
    18    13    21    1
    19    21    22    1
    20    22    23    1
    21    23    24    1
    22    24    25    1
    23    24    26    2
    24    24    27    2
    25    13    14   ar
    26    14    15   ar
    27    15    16   ar
    28    16    17    1
    29    16    18   ar
    30    18    19   ar
    31    19    20   ar
    32     7     8   ar
    33     8     9   ar
    34     9     1   ar
    35     9     4    1
    36    20    11   ar
    37    20    14   ar
    38    36    37    1
    39    28    31    1
    40     5    10    1
@<TRIPOS>MOLECULE
*****
 37 40 0 0 0
SMALL
GASTEIGER

@<TRIPOS>ATOM
      1 C          66.1594   92.3889   13.9968 C.ar    1  UNL1        0.0930
      2 C          66.1543   93.3204   15.1724 C.ar    1  UNL1        0.1067
      3 N          65.2531   92.7385   16.2209 N.ar    1  UNL1       -0.2252
      4 C          64.7012   91.4474   15.6932 C.ar    1  UNL1        0.1586
      5 N          63.7611   90.4406   16.2867 N.ar    1  UNL1       -0.3349
      6 C          63.3811   89.2177   15.5057 C.ar    1  UNL1        0.0945
      7 C          63.9413   89.0016   14.1311 C.ar    1  UNL1        0.1176
      8 N          64.8814   90.0084   13.5375 N.ar    1  UNL1       -0.2390
      9 C          65.2614   91.2313   14.3186 C.ar    1  UNL1        0.1210
     10 H          63.3934   90.5824   17.1889 H       1  UNL1        0.1675
     11 C          63.5612   87.7786   13.3501 C.ar    1  UNL1        0.1213
     12 N          62.9074   87.7625   12.0001 N.ar    1  UNL1       -0.1677
     13 N          62.7103   86.3310   11.5976 N.ar    1  UNL1       -0.2507
     14 C          63.2424   85.4624   12.6987 C.ar    1  UNL1        0.0816
     15 C          63.3160   83.9724   12.8551 C.ar    1  UNL1        0.0484
     16 C          63.9155   83.3771   14.0945 C.ar    1  UNL1        0.1416
     17 F          63.9891   81.8870   14.2509 F       1  UNL1       -0.2041
     18 C          64.4414   84.2718   15.1776 C.ar    1  UNL1        0.0298
     19 C          64.3677   85.7618   15.0213 C.ar    1  UNL1        0.0054
     20 C          63.7683   86.3571   13.7818 C.ar    1  UNL1        0.0383
     21 C          62.0902   85.8522   10.3185 C.3     1  UNL1        0.1293
     22 C          60.7368   86.3521    9.9080 C.3     1  UNL1        0.0516
     23 C          60.5338   87.8082    9.6103 C.3     1  UNL1        0.1530
     24 S          59.8180   88.2253    8.3598 S.O2    1  UNL1       -0.0082
     25 C          59.1022   88.6422    7.1093 C.3     1  UNL1        0.1760
     26 O          60.1484   89.6595    8.6490 O.2     1  UNL1       -0.1729
     27 O          59.4876   86.7909    8.0706 O.2     1  UNL1       -0.1729
     28 N          66.3040   93.3181   11.5748 N.am    1  UNL1       -0.3015
     29 C          66.9277   92.5812   12.7229 C.2     1  UNL1        0.2489
     30 O          68.3196   92.0366   12.5970 O.2     1  UNL1       -0.2700
     31 H          65.3904   93.6756   11.6574 H       1  UNL1        0.1497
     32 C          67.0243   94.9969   10.4964 C.3     1  UNL1        0.0222
     33 C          67.0723   93.5104   10.3009 C.3     1  UNL1        0.0841
     34 C          67.1203   92.0239   10.1055 C.3     1  UNL1        0.0222
     35 C          67.8405   93.7027    9.0271 C.3     1  UNL1        0.1549
     36 O          68.5203   92.5339    8.3774 O.3     1  UNL1       -0.3803
     37 H          69.2346   92.2154    8.9512 H       1  UNL1        0.2105
@<TRIPOS>BOND
     1    32    33    1
     2    33    34    1
     3    33    35    1
     4    35    36    1
     5    33    28    1
     6    28    29   am
     7    29    30    2
     8    29     1    1
     9     1     2   ar
    10     2     3   ar
    11     3     4   ar
    12     4     5   ar
    13     5     6   ar
    14     6     7   ar
    15     7    11    1
    16    11    12   ar
    17    12    13   ar
    18    13    21    1
    19    21    22    1
    20    22    23    1
    21    23    24    1
    22    24    25    1
    23    24    26    2
    24    24    27    2
    25    13    14   ar
    26    14    15   ar
    27    15    16   ar
    28    16    17    1
    29    16    18   ar
    30    18    19   ar
    31    19    20   ar
    32     7     8   ar
    33     8     9   ar
    34     9     1   ar
    35     9     4    1
    36    20    11   ar
    37    20    14   ar
    38    36    37    1
    39    28    31    1
    40     5    10    1
@<TRIPOS>MOLECULE
*****
 37 40 0 0 0
SMALL
GASTEIGER

@<TRIPOS>ATOM
      1 C          63.0534   83.5373   13.0417 C.ar    1  UNL1        0.0930
      2 C          62.8527   82.3527   13.9396 C.ar    1  UNL1        0.1067
      3 N          63.0069   82.8149   15.3582 N.ar    1  UNL1       -0.2252
      4 C          63.3029   84.2853   15.3371 C.ar    1  UNL1        0.1586
      5 N          63.5500   85.2753   16.4365 N.ar    1  UNL1       -0.3349
      6 C          63.8259   86.7117   16.1042 C.ar    1  UNL1        0.0945
      7 C          63.8546   87.1582   14.6725 C.ar    1  UNL1        0.1176
      8 N          63.6075   86.1682   13.5731 N.ar    1  UNL1       -0.2390
      9 C          63.3317   84.7318   13.9054 C.ar    1  UNL1        0.1210
     10 H          63.5312   84.9822   17.3762 H       1  UNL1        0.1675
     11 C          64.1305   88.5948   14.3403 C.ar    1  UNL1        0.1213
     12 N          64.8404   89.5822   15.2184 N.ar    1  UNL1       -0.1677
     13 N          64.8935   90.8937   14.4925 N.ar    1  UNL1       -0.2507
     14 C          64.2164   90.7169   13.1657 C.ar    1  UNL1        0.0816
     15 C          63.9684   91.6661   12.0310 C.ar    1  UNL1        0.0484
     16 C          63.2488   91.1945   10.8024 C.ar    1  UNL1        0.1416
     17 F          63.0008   92.1437    9.6676 F       1  UNL1       -0.2041
     18 C          62.7772   89.7736   10.7083 C.ar    1  UNL1        0.0298
     19 C          63.0252   88.8244   11.8429 C.ar    1  UNL1        0.0054
     20 C          63.7449   89.2961   13.0716 C.ar    1  UNL1        0.0383
     21 C          65.5147   92.1598   15.0036 C.3     1  UNL1        0.1293
     22 C          66.7109   92.7414   14.3102 C.3     1  UNL1        0.0516
     23 C          66.5349   93.8454   13.3102 C.3     1  UNL1        0.1530
     24 S          66.7115   93.5671   11.8469 S.O2    1  UNL1       -0.0082
     25 C          66.8881   93.2889   10.3835 C.3     1  UNL1        0.1760
     26 O          67.5290   92.3534   12.1763 O.2     1  UNL1       -0.1729
     27 O          65.8940   94.7809   11.5174 O.2     1  UNL1       -0.1729
     28 N          62.9888   84.8236   10.7852 N.am    1  UNL1       -0.3015
     29 C          62.9874   83.5291   11.5432 C.2     1  UNL1        0.2489
     30 O          62.9201   82.2265   10.8025 O.2     1  UNL1       -0.2700
     31 H          63.0330   85.6786   11.2713 H       1  UNL1        0.1497
     32 C          63.9775   83.7494    9.2462 C.3     1  UNL1        0.0222
     33 C          62.9228   84.8153    9.2867 C.3     1  UNL1        0.0841
     34 C          61.8682   85.8812    9.3272 C.3     1  UNL1        0.0222
     35 C          62.8569   84.8070    7.7882 C.3     1  UNL1        0.1549
     36 O          61.5822   85.1808    7.0914 O.3     1  UNL1       -0.3803
     37 H          60.9005   84.5192    7.2875 H       1  UNL1        0.2105
@<TRIPOS>BOND
     1    32    33    1
     2    33    34    1
     3    33    35    1
     4    35    36    1
     5    33    28    1
     6    28    29   am
     7    29    30    2
     8    29     1    1
     9     1     2   ar
    10     2     3   ar
    11     3     4   ar
    12     4     5   ar
    13     5     6   ar
    14     6     7   ar
    15     7    11    1
    16    11    12   ar
    17    12    13   ar
    18    13    21    1
    19    21    22    1
    20    22    23    1
    21    23    24    1
    22    24    25    1
    23    24    26    2
    24    24    27    2
    25    13    14   ar
    26    14    15   ar
    27    15    16   ar
    28    16    17    1
    29    16    18   ar
    30    18    19   ar
    31    19    20   ar
    32     7     8   ar
    33     8     9   ar
    34     9     1   ar
    35     9     4    1
    36    20    11   ar
    37    20    14   ar
    38    36    37    1
    39    28    31    1
    40     5    10    1
@<TRIPOS>MOLECULE
*****
 37 40 0 0 0
SMALL
GASTEIGER

@<TRIPOS>ATOM
      1 C          65.2037   92.0305   12.2883 C.ar    1  UNL1        0.0930
      2 C          65.7671   92.0171   13.6784 C.ar    1  UNL1        0.1067
      3 N          65.1870   90.8383   14.4022 N.ar    1  UNL1       -0.2252
      4 C          64.2651   90.1232   13.4595 C.ar    1  UNL1        0.1586
      5 N          63.4176   88.8963   13.6219 N.ar    1  UNL1       -0.3349
      6 C          62.5804   88.4062   12.4778 C.ar    1  UNL1        0.0945
      7 C          62.5907   89.1431   11.1713 C.ar    1  UNL1        0.1176
      8 N          63.4382   90.3700   11.0089 N.ar    1  UNL1       -0.2390
      9 C          64.2754   90.8600   12.1530 C.ar    1  UNL1        0.1210
     10 H          63.4108   88.4127   14.4794 H       1  UNL1        0.1675
     11 C          61.7535   88.6530   10.0272 C.ar    1  UNL1        0.1213
     12 N          60.5641   89.3544    9.4412 N.ar    1  UNL1       -0.1677
     13 N          60.0342   88.5104    8.3201 N.ar    1  UNL1       -0.2507
     14 C          60.8960   87.2873    8.2133 C.ar    1  UNL1        0.0816
     15 C          60.8506   86.1047    7.2917 C.ar    1  UNL1        0.0484
     16 C          61.8676   85.0104    7.4251 C.ar    1  UNL1        0.1416
     17 F          61.8221   83.8277    6.5034 F       1  UNL1       -0.2041
     18 C          62.9302   85.0985    8.4802 C.ar    1  UNL1        0.0298
     19 C          62.9757   86.2811    9.4018 C.ar    1  UNL1        0.0054
     20 C          61.9586   87.3755    9.2684 C.ar    1  UNL1        0.0383
     21 C          58.8503   88.8328    7.4573 C.3     1  UNL1        0.1293
     22 C          59.0517   89.4771    6.1179 C.3     1  UNL1        0.0516
     23 C          58.4083   90.7983    5.8168 C.3     1  UNL1        0.1530
     24 S          58.9987   91.6994    4.7731 S.O2    1  UNL1       -0.0082
     25 C          59.5893   92.6005    3.7294 C.3     1  UNL1        0.1760
     26 O          57.6438   92.2890    4.5156 O.2     1  UNL1       -0.1729
     27 O          60.3538   91.1099    5.0307 O.2     1  UNL1       -0.1729
     28 N          66.7953   93.8160   11.2738 N.am    1  UNL1       -0.3015
     29 C          65.5141   93.0376   11.2208 C.2     1  UNL1        0.2489
     30 O          64.5435   93.2663   10.1004 O.2     1  UNL1       -0.2700
     31 H          67.4324   93.6660   12.0092 H       1  UNL1        0.1497
     32 C          67.8567   93.7767    9.4376 C.3     1  UNL1        0.0222
     33 C          67.1056   94.8231   10.2064 C.3     1  UNL1        0.0841
     34 C          66.3546   95.8695   10.9752 C.3     1  UNL1        0.0222
     35 C          67.4160   95.8302    9.1390 C.3     1  UNL1        0.1549
     36 O          66.3897   96.8533    8.7518 O.3     1  UNL1       -0.3803
     37 H          65.6305   96.4105    8.3414 H       1  UNL1        0.2105
@<TRIPOS>BOND
     1    32    33    1
     2    33    34    1
     3    33    35    1
     4    35    36    1
     5    33    28    1
     6    28    29   am
     7    29    30    2
     8    29     1    1
     9     1     2   ar
    10     2     3   ar
    11     3     4   ar
    12     4     5   ar
    13     5     6   ar
    14     6     7   ar
    15     7    11    1
    16    11    12   ar
    17    12    13   ar
    18    13    21    1
    19    21    22    1
    20    22    23    1
    21    23    24    1
    22    24    25    1
    23    24    26    2
    24    24    27    2
    25    13    14   ar
    26    14    15   ar
    27    15    16   ar
    28    16    17    1
    29    16    18   ar
    30    18    19   ar
    31    19    20   ar
    32     7     8   ar
    33     8     9   ar
    34     9     1   ar
    35     9     4    1
    36    20    11   ar
    37    20    14   ar
    38    36    37    1
    39    28    31    1
    40     5    10    1
