@<TRIPOS>MOLECULE
*****
 36 40 0 0 0
SMALL
GASTEIGER

@<TRIPOS>ATOM
      1 C          63.1093   85.2481    8.1511 C.3     1  UNL1        0.0896
      2 N          61.9575   85.5568    9.0612 N.3     1  UNL1       -0.2710
      3 C          60.6713   86.0787    8.4926 C.3     1  UNL1        0.0818
      4 C          59.9853   87.2464    9.1374 C.3     1  UNL1        0.1026
      5 C          60.4661   88.6414    8.8673 C.2     1  UNL1        0.2271
      6 O          59.9859   89.3781    7.6521 O.2     1  UNL1       -0.2748
      7 N          61.4271   89.2997    9.8124 N.am    1  UNL1       -0.2760
      8 C          61.9073   88.5629   11.0276 C.3     1  UNL1        0.1148
      9 C          62.8683   89.2212   11.9727 C.3     1  UNL1        0.1123
     10 N          63.3491   90.6162   11.7025 N.pl3   1  UNL1       -0.3040
     11 C          62.8689   91.3528   10.4874 C.3     1  UNL1        0.1123
     12 C          61.9079   90.6946    9.5423 C.3     1  UNL1        0.1148
     13 C          64.3101   91.2744   12.6476 C.ar    1  UNL1        0.0503
     14 C          64.4781   90.7403   14.0393 C.ar    1  UNL1        0.0170
     15 C          65.4391   91.3985   14.9844 C.ar    1  UNL1        0.0332
     16 C          66.2321   92.5909   14.5378 C.ar    1  UNL1        0.1675
     17 F          67.1931   93.2492   15.4829 F       1  UNL1       -0.2018
     18 C          66.0642   93.1250   13.1462 C.ar    1  UNL1        0.1686
     19 F          66.8572   94.3173   12.6998 F       1  UNL1       -0.2018
     20 C          65.1032   92.4667   12.2011 C.ar    1  UNL1        0.0465
     21 C          62.0920   85.3437   10.5399 C.3     1  UNL1        0.0728
     22 C          63.3429   84.7334   11.0989 C.3     1  UNL1        0.0263
     23 C          63.3284   84.1102   12.4633 C.3     1  UNL1        0.0519
     24 C          63.5667   84.9580   13.6776 C.ar    1  UNL1        0.0162
     25 C          63.8195   86.4289   13.5276 C.ar    1  UNL1       -0.0009
     26 C          64.0578   87.2766   14.7418 C.ar    1  UNL1       -0.0001
     27 C          64.0433   86.6535   16.1062 C.ar    1  UNL1        0.0031
     28 C          63.7905   85.1826   16.2563 C.ar    1  UNL1        0.0372
     29 C          63.5522   84.3349   15.0420 C.ar    1  UNL1        0.1415
     30 O          63.2995   82.8639   15.1920 O.3     1  UNL1       -0.4541
     31 C          63.0612   82.0162   13.9777 C.ar    1  UNL1        0.1415
     32 C          62.8084   80.5452   14.1277 C.ar    1  UNL1        0.0372
     33 C          62.5701   79.6975   12.9135 C.ar    1  UNL1        0.0031
     34 C          62.5846   80.3206   11.5491 C.ar    1  UNL1       -0.0001
     35 C          62.8374   81.7915   11.3990 C.ar    1  UNL1       -0.0009
     36 C          63.0757   82.6393   12.6134 C.ar    1  UNL1        0.0162
@<TRIPOS>BOND
     1     1     2    1
     2     2     3    1
     3     3     4    1
     4     4     5    1
     5     5     6    2
     6     5     7   am
     7     7     8    1
     8     8     9    1
     9     9    10    1
    10    10    13    1
    11    13    14   ar
    12    14    15   ar
    13    15    16   ar
    14    16    17    1
    15    16    18   ar
    16    18    19    1
    17    18    20   ar
    18    10    11    1
    19    11    12    1
    20     2    21    1
    21    21    22    1
    22    22    23    1
    23    23    24    1
    24    24    25   ar
    25    25    26   ar
    26    26    27   ar
    27    27    28   ar
    28    28    29   ar
    29    29    30    1
    30    30    31    1
    31    31    32   ar
    32    32    33   ar
    33    33    34   ar
    34    34    35   ar
    35    35    36   ar
    36    12     7    1
    37    36    23    1
    38    20    13   ar
    39    29    24   ar
    40    36    31   ar
@<TRIPOS>MOLECULE
*****
 36 40 0 0 0
SMALL
GASTEIGER

@<TRIPOS>ATOM
      1 C          63.0854   85.1754    8.2117 C.3     1  UNL1        0.0896
      2 N          61.9529   85.5214    9.1325 N.3     1  UNL1       -0.2710
      3 C          60.6733   86.0699    8.5745 C.3     1  UNL1        0.0818
      4 C          60.0037   87.2357    9.2397 C.3     1  UNL1        0.1026
      5 C          60.4725   88.6320    8.9558 C.2     1  UNL1        0.2271
      6 O          59.9701   89.3602    7.7446 O.2     1  UNL1       -0.2748
      7 N          61.4439   89.3001    9.8833 N.am    1  UNL1       -0.2760
      8 C          61.9464   88.5718   11.0946 C.3     1  UNL1        0.1148
      9 C          62.9178   89.2399   12.0220 C.3     1  UNL1        0.1123
     10 N          63.3866   90.6362   11.7381 N.pl3   1  UNL1       -0.3040
     11 C          62.8842   91.3644   10.5269 C.3     1  UNL1        0.1123
     12 C          61.9128   90.6963    9.5994 C.3     1  UNL1        0.1148
     13 C          64.3580   91.3042   12.6656 C.ar    1  UNL1        0.0503
     14 C          64.5598   90.7694   14.0525 C.ar    1  UNL1        0.0170
     15 C          65.5312   91.4375   14.9799 C.ar    1  UNL1        0.0332
     16 C          66.3007   92.6404   14.5205 C.ar    1  UNL1        0.1675
     17 F          67.2721   93.3084   15.4479 F       1  UNL1       -0.2018
     18 C          66.0989   93.1751   13.1336 C.ar    1  UNL1        0.1686
     19 F          66.8684   94.3779   12.6743 F       1  UNL1       -0.2018
     20 C          65.1275   92.5070   12.2062 C.ar    1  UNL1        0.0465
     21 C          62.1003   85.3189   10.6115 C.3     1  UNL1        0.0728
     22 C          63.3410   84.6798   11.1610 C.3     1  UNL1        0.0263
     23 C          63.3220   84.0554   12.5248 C.3     1  UNL1        0.0519
     24 C          63.0738   82.5834   12.6724 C.ar    1  UNL1        0.0162
     25 C          62.8445   81.7359   11.4563 C.ar    1  UNL1       -0.0009
     26 C          62.5963   80.2640   11.6039 C.ar    1  UNL1       -0.0001
     27 C          62.5774   79.6396   12.9676 C.ar    1  UNL1        0.0031
     28 C          62.8066   80.4872   14.1838 C.ar    1  UNL1        0.0372
     29 C          63.0548   81.9591   14.0361 C.ar    1  UNL1        0.1415
     30 O          63.2841   82.8067   15.2523 O.3     1  UNL1       -0.4541
     31 C          63.5323   84.2786   15.1047 C.ar    1  UNL1        0.1415
     32 C          63.7616   85.1263   16.3209 C.ar    1  UNL1        0.0372
     33 C          64.0098   86.5982   16.1733 C.ar    1  UNL1        0.0031
     34 C          64.0288   87.2225   14.8095 C.ar    1  UNL1       -0.0001
     35 C          63.7995   86.3750   13.5934 C.ar    1  UNL1       -0.0009
     36 C          63.5513   84.9030   13.7409 C.ar    1  UNL1        0.0162
@<TRIPOS>BOND
     1     1     2    1
     2     2     3    1
     3     3     4    1
     4     4     5    1
     5     5     6    2
     6     5     7   am
     7     7     8    1
     8     8     9    1
     9     9    10    1
    10    10    13    1
    11    13    14   ar
    12    14    15   ar
    13    15    16   ar
    14    16    17    1
    15    16    18   ar
    16    18    19    1
    17    18    20   ar
    18    10    11    1
    19    11    12    1
    20     2    21    1
    21    21    22    1
    22    22    23    1
    23    23    24    1
    24    24    25   ar
    25    25    26   ar
    26    26    27   ar
    27    27    28   ar
    28    28    29   ar
    29    29    30    1
    30    30    31    1
    31    31    32   ar
    32    32    33   ar
    33    33    34   ar
    34    34    35   ar
    35    35    36   ar
    36    12     7    1
    37    36    23    1
    38    20    13   ar
    39    29    24   ar
    40    36    31   ar
@<TRIPOS>MOLECULE
*****
 36 40 0 0 0
SMALL
GASTEIGER

@<TRIPOS>ATOM
      1 C          62.7495   87.2726   17.8072 C.3     1  UNL1        0.0896
      2 N          63.3214   87.1530   16.4256 N.3     1  UNL1       -0.2710
      3 C          63.6947   88.3870   15.6590 C.3     1  UNL1        0.0818
      4 C          63.1441   89.7204   16.0698 C.3     1  UNL1        0.1026
      5 C          64.0653   90.8920   16.2401 C.2     1  UNL1        0.2271
      6 O          64.4000   91.3893   17.6151 O.2     1  UNL1       -0.2748
      7 N          64.6517   91.5663   15.0353 N.am    1  UNL1       -0.2760
      8 C          64.3170   91.0689   13.6603 C.3     1  UNL1        0.1148
      9 C          64.9034   91.7432   12.4555 C.3     1  UNL1        0.1123
     10 N          65.8246   92.9148   12.6258 N.pl3   1  UNL1       -0.3040
     11 C          66.1592   93.4121   14.0008 C.3     1  UNL1        0.1123
     12 C          65.5728   92.7378   15.2055 C.3     1  UNL1        0.1148
     13 C          66.4110   93.5891   11.4210 C.ar    1  UNL1        0.0503
     14 C          66.1999   95.0587   11.2070 C.ar    1  UNL1        0.0170
     15 C          66.7864   95.7330   10.0022 C.ar    1  UNL1        0.0332
     16 C          67.5838   94.9376    9.0115 C.ar    1  UNL1        0.1675
     17 F          68.1703   95.6119    7.8067 F       1  UNL1       -0.2018
     18 C          67.7949   93.4681    9.2255 C.ar    1  UNL1        0.1686
     19 F          68.5923   92.6728    8.2348 F       1  UNL1       -0.2018
     20 C          67.2084   92.7938   10.4303 C.ar    1  UNL1        0.0465
     21 C          63.5199   85.7993   15.8107 C.3     1  UNL1        0.0728
     22 C          64.2747   85.6645   14.5215 C.3     1  UNL1        0.0263
     23 C          63.5763   85.1627   13.2925 C.3     1  UNL1        0.0519
     24 C          63.4050   83.6882   13.0764 C.ar    1  UNL1        0.0162
     25 C          63.9321   82.7156   14.0894 C.ar    1  UNL1       -0.0009
     26 C          63.7607   81.2412   13.8733 C.ar    1  UNL1       -0.0001
     27 C          63.0624   80.7394   12.6443 C.ar    1  UNL1        0.0031
     28 C          62.5354   81.7121   11.6313 C.ar    1  UNL1        0.0372
     29 C          62.7067   83.1865   11.8474 C.ar    1  UNL1        0.1415
     30 O          62.1796   84.1592   10.8344 O.3     1  UNL1       -0.4541
     31 C          62.3510   85.6336   11.0505 C.ar    1  UNL1        0.1415
     32 C          61.8239   86.6064   10.0375 C.ar    1  UNL1        0.0372
     33 C          61.9952   88.0808   10.2536 C.ar    1  UNL1        0.0031
     34 C          62.6936   88.5825   11.4826 C.ar    1  UNL1       -0.0001
     35 C          63.2206   87.6099   12.4956 C.ar    1  UNL1       -0.0009
     36 C          63.0493   86.1354   12.2795 C.ar    1  UNL1        0.0162
@<TRIPOS>BOND
     1     1     2    1
     2     2     3    1
     3     3     4    1
     4     4     5    1
     5     5     6    2
     6     5     7   am
     7     7     8    1
     8     8     9    1
     9     9    10    1
    10    10    13    1
    11    13    14   ar
    12    14    15   ar
    13    15    16   ar
    14    16    17    1
    15    16    18   ar
    16    18    19    1
    17    18    20   ar
    18    10    11    1
    19    11    12    1
    20     2    21    1
    21    21    22    1
    22    22    23    1
    23    23    24    1
    24    24    25   ar
    25    25    26   ar
    26    26    27   ar
    27    27    28   ar
    28    28    29   ar
    29    29    30    1
    30    30    31    1
    31    31    32   ar
    32    32    33   ar
    33    33    34   ar
    34    34    35   ar
    35    35    36   ar
    36    12     7    1
    37    36    23    1
    38    20    13   ar
    39    29    24   ar
    40    36    31   ar
@<TRIPOS>MOLECULE
*****
 36 40 0 0 0
SMALL
GASTEIGER

@<TRIPOS>ATOM
      1 C          62.7616   87.2819   17.8208 C.3     1  UNL1        0.0896
      2 N          63.3175   87.1547   16.4334 N.3     1  UNL1       -0.2710
      3 C          63.7210   88.3822   15.6716 C.3     1  UNL1        0.0818
      4 C          63.1585   89.7197   16.0521 C.3     1  UNL1        0.1026
      5 C          64.0717   90.8986   16.2148 C.2     1  UNL1        0.2271
      6 O          64.3957   91.4127   17.5862 O.2     1  UNL1       -0.2748
      7 N          64.6610   91.5633   15.0061 N.am    1  UNL1       -0.2760
      8 C          64.3370   91.0491   13.6347 C.3     1  UNL1        0.1148
      9 C          64.9263   91.7138   12.4260 C.3     1  UNL1        0.1123
     10 N          65.8395   92.8927   12.5887 N.pl3   1  UNL1       -0.3040
     11 C          66.1634   93.4068   13.9601 C.3     1  UNL1        0.1123
     12 C          65.5741   92.7421   15.1688 C.3     1  UNL1        0.1148
     13 C          66.4287   93.5574   11.3800 C.ar    1  UNL1        0.0503
     14 C          66.1933   95.0190   11.1382 C.ar    1  UNL1        0.0170
     15 C          66.7825   95.6837    9.9295 C.ar    1  UNL1        0.0332
     16 C          67.6072   94.8868    8.9626 C.ar    1  UNL1        0.1675
     17 F          68.1964   95.5515    7.7539 F       1  UNL1       -0.2018
     18 C          67.8426   93.4253    9.2044 C.ar    1  UNL1        0.1686
     19 F          68.6673   92.6285    8.2374 F       1  UNL1       -0.2018
     20 C          67.2534   92.7606   10.4131 C.ar    1  UNL1        0.0465
     21 C          63.4699   85.7999   15.8078 C.3     1  UNL1        0.0728
     22 C          64.2420   85.6459   14.5311 C.3     1  UNL1        0.0263
     23 C          63.5554   85.1452   13.2950 C.3     1  UNL1        0.0519
     24 C          63.0389   86.1189   12.2774 C.ar    1  UNL1        0.0162
     25 C          63.2091   87.5930   12.4960 C.ar    1  UNL1       -0.0009
     26 C          62.6927   88.5666   11.4784 C.ar    1  UNL1       -0.0001
     27 C          62.0060   88.0660   10.2423 C.ar    1  UNL1        0.0031
     28 C          61.8358   86.5918   10.0238 C.ar    1  UNL1        0.0372
     29 C          62.3523   85.6182   11.0414 C.ar    1  UNL1        0.1415
     30 O          62.1821   84.1440   10.8229 O.3     1  UNL1       -0.4541
     31 C          62.6985   83.1704   11.8404 C.ar    1  UNL1        0.1415
     32 C          62.5283   81.6962   11.6220 C.ar    1  UNL1        0.0372
     33 C          63.0447   80.7226   12.6395 C.ar    1  UNL1        0.0031
     34 C          63.7314   81.2233   13.8756 C.ar    1  UNL1       -0.0001
     35 C          63.9016   82.6974   14.0941 C.ar    1  UNL1       -0.0009
     36 C          63.3852   83.6711   13.0765 C.ar    1  UNL1        0.0162
@<TRIPOS>BOND
     1     1     2    1
     2     2     3    1
     3     3     4    1
     4     4     5    1
     5     5     6    2
     6     5     7   am
     7     7     8    1
     8     8     9    1
     9     9    10    1
    10    10    13    1
    11    13    14   ar
    12    14    15   ar
    13    15    16   ar
    14    16    17    1
    15    16    18   ar
    16    18    19    1
    17    18    20   ar
    18    10    11    1
    19    11    12    1
    20     2    21    1
    21    21    22    1
    22    22    23    1
    23    23    24    1
    24    24    25   ar
    25    25    26   ar
    26    26    27   ar
    27    27    28   ar
    28    28    29   ar
    29    29    30    1
    30    30    31    1
    31    31    32   ar
    32    32    33   ar
    33    33    34   ar
    34    34    35   ar
    35    35    36   ar
    36    12     7    1
    37    36    23    1
    38    20    13   ar
    39    29    24   ar
    40    36    31   ar
@<TRIPOS>MOLECULE
*****
 36 40 0 0 0
SMALL
GASTEIGER

@<TRIPOS>ATOM
      1 C          62.9087   85.5683    8.1018 C.3     1  UNL1        0.0896
      2 N          61.8554   85.9452    9.1011 N.3     1  UNL1       -0.2710
      3 C          60.7147   86.8288    8.6914 C.3     1  UNL1        0.0818
      4 C          60.6349   88.2364    9.2036 C.3     1  UNL1        0.1026
      5 C          60.6009   88.4963   10.6806 C.2     1  UNL1        0.2271
      6 O          59.5007   87.9161   11.5190 O.2     1  UNL1       -0.2748
      7 N          61.6671   89.3363   11.3190 N.am    1  UNL1       -0.2760
      8 C          62.7673   89.9164   10.4804 C.3     1  UNL1        0.1148
      9 C          63.8335   90.7564   11.1189 C.3     1  UNL1        0.1123
     10 N          63.7995   91.0163   12.5959 N.pl3   1  UNL1       -0.3040
     11 C          62.6994   90.4362   13.4343 C.3     1  UNL1        0.1123
     12 C          61.6332   89.5962   12.7959 C.3     1  UNL1        0.1148
     13 C          64.8657   91.8563   13.2343 C.ar    1  UNL1        0.0503
     14 C          65.5845   92.8966   12.4273 C.ar    1  UNL1        0.0170
     15 C          66.6507   93.7366   13.0657 C.ar    1  UNL1        0.0332
     16 C          66.9981   93.5363   14.5111 C.ar    1  UNL1        0.1675
     17 F          68.0643   94.3763   15.1496 F       1  UNL1       -0.2018
     18 C          66.2794   92.4961   15.3181 C.ar    1  UNL1        0.1686
     19 F          66.6268   92.2958   16.7634 F       1  UNL1       -0.2018
     20 C          65.2132   91.6561   14.6796 C.ar    1  UNL1        0.0465
     21 C          61.9428   85.4383   10.5102 C.3     1  UNL1        0.0728
     22 C          63.2135   84.8137   11.0051 C.3     1  UNL1        0.0263
     23 C          63.2746   84.2308   12.3858 C.3     1  UNL1        0.0519
     24 C          63.0559   82.7608   12.5897 C.ar    1  UNL1        0.0162
     25 C          62.7762   81.8738   11.4128 C.ar    1  UNL1       -0.0009
     26 C          62.5576   80.4040   11.6167 C.ar    1  UNL1       -0.0001
     27 C          62.6186   79.8211   12.9975 C.ar    1  UNL1        0.0031
     28 C          62.8984   80.7080   14.1743 C.ar    1  UNL1        0.0372
     29 C          63.1170   82.1779   13.9704 C.ar    1  UNL1        0.1415
     30 O          63.3968   83.0649   15.1473 O.3     1  UNL1       -0.4541
     31 C          63.6154   84.5348   14.9434 C.ar    1  UNL1        0.1415
     32 C          63.8952   85.4219   16.1203 C.ar    1  UNL1        0.0372
     33 C          64.1138   86.8917   15.9164 C.ar    1  UNL1        0.0031
     34 C          64.0527   87.4746   14.5356 C.ar    1  UNL1       -0.0001
     35 C          63.7730   86.5877   13.3588 C.ar    1  UNL1       -0.0009
     36 C          63.5543   85.1177   13.5627 C.ar    1  UNL1        0.0162
@<TRIPOS>BOND
     1     1     2    1
     2     2     3    1
     3     3     4    1
     4     4     5    1
     5     5     6    2
     6     5     7   am
     7     7     8    1
     8     8     9    1
     9     9    10    1
    10    10    13    1
    11    13    14   ar
    12    14    15   ar
    13    15    16   ar
    14    16    17    1
    15    16    18   ar
    16    18    19    1
    17    18    20   ar
    18    10    11    1
    19    11    12    1
    20     2    21    1
    21    21    22    1
    22    22    23    1
    23    23    24    1
    24    24    25   ar
    25    25    26   ar
    26    26    27   ar
    27    27    28   ar
    28    28    29   ar
    29    29    30    1
    30    30    31    1
    31    31    32   ar
    32    32    33   ar
    33    33    34   ar
    34    34    35   ar
    35    35    36   ar
    36    12     7    1
    37    36    23    1
    38    20    13   ar
    39    29    24   ar
    40    36    31   ar
@<TRIPOS>MOLECULE
*****
 36 40 0 0 0
SMALL
GASTEIGER

@<TRIPOS>ATOM
      1 C          60.4257   86.0443    8.1790 C.3     1  UNL1        0.0896
      2 N          61.3240   86.4539    9.3084 N.3     1  UNL1       -0.2710
      3 C          62.0221   87.7809    9.2679 C.3     1  UNL1        0.0818
      4 C          61.3633   88.9932    9.8563 C.3     1  UNL1        0.1026
      5 C          61.3386   89.1859   11.3437 C.2     1  UNL1        0.2271
      6 O          60.2123   88.6176   12.1550 O.2     1  UNL1       -0.2748
      7 N          62.4404   89.9469   12.0197 N.am    1  UNL1       -0.2760
      8 C          63.5668   90.5152   11.2083 C.3     1  UNL1        0.1148
      9 C          64.6686   91.2762   11.8843 C.3     1  UNL1        0.1123
     10 N          64.6439   91.4689   13.3717 N.pl3   1  UNL1       -0.3040
     11 C          63.5176   90.9006   14.1830 C.3     1  UNL1        0.1123
     12 C          62.4158   90.1396   13.5070 C.3     1  UNL1        0.1148
     13 C          65.7457   92.2299   14.0477 C.ar    1  UNL1        0.0503
     14 C          66.1272   93.5942   13.5543 C.ar    1  UNL1        0.0170
     15 C          67.2290   94.3552   14.2303 C.ar    1  UNL1        0.0332
     16 C          67.9492   93.7519   15.3997 C.ar    1  UNL1        0.1675
     17 F          69.0510   94.5129   16.0757 F       1  UNL1       -0.2018
     18 C          67.5677   92.3878   15.8931 C.ar    1  UNL1        0.1686
     19 F          68.2879   91.7846   17.0624 F       1  UNL1       -0.2018
     20 C          66.4659   91.6268   15.2171 C.ar    1  UNL1        0.0465
     21 C          61.5241   85.5365   10.4781 C.3     1  UNL1        0.0728
     22 C          62.9001   85.0482   10.8215 C.3     1  UNL1        0.0263
     23 C          63.1569   84.4027   12.1510 C.3     1  UNL1        0.0519
     24 C          63.5384   85.2448   13.3323 C.ar    1  UNL1        0.0162
     25 C          63.6632   86.7322   13.1842 C.ar    1  UNL1       -0.0009
     26 C          64.0447   87.5741   14.3655 C.ar    1  UNL1       -0.0001
     27 C          64.3015   86.9287   15.6949 C.ar    1  UNL1        0.0031
     28 C          64.1767   85.4413   15.8431 C.ar    1  UNL1        0.0372
     29 C          63.7951   84.5993   14.6618 C.ar    1  UNL1        0.1415
     30 O          63.6703   83.1118   14.8099 O.3     1  UNL1       -0.4541
     31 C          63.2888   82.2699   13.6286 C.ar    1  UNL1        0.1415
     32 C          63.1640   80.7824   13.7767 C.ar    1  UNL1        0.0372
     33 C          62.7825   79.9404   12.5954 C.ar    1  UNL1        0.0031
     34 C          62.5257   80.5859   11.2660 C.ar    1  UNL1       -0.0001
     35 C          62.6505   82.0733   11.1178 C.ar    1  UNL1       -0.0009
     36 C          63.0321   82.9153   12.2991 C.ar    1  UNL1        0.0162
@<TRIPOS>BOND
     1     1     2    1
     2     2     3    1
     3     3     4    1
     4     4     5    1
     5     5     6    2
     6     5     7   am
     7     7     8    1
     8     8     9    1
     9     9    10    1
    10    10    13    1
    11    13    14   ar
    12    14    15   ar
    13    15    16   ar
    14    16    17    1
    15    16    18   ar
    16    18    19    1
    17    18    20   ar
    18    10    11    1
    19    11    12    1
    20     2    21    1
    21    21    22    1
    22    22    23    1
    23    23    24    1
    24    24    25   ar
    25    25    26   ar
    26    26    27   ar
    27    27    28   ar
    28    28    29   ar
    29    29    30    1
    30    30    31    1
    31    31    32   ar
    32    32    33   ar
    33    33    34   ar
    34    34    35   ar
    35    35    36   ar
    36    12     7    1
    37    36    23    1
    38    20    13   ar
    39    29    24   ar
    40    36    31   ar
@<TRIPOS>MOLECULE
*****
 36 40 0 0 0
SMALL
GASTEIGER

@<TRIPOS>ATOM
      1 C          64.5840   83.9896   13.5790 C.3     1  UNL1        0.0896
      2 N          63.1610   84.4447   13.7139 N.3     1  UNL1       -0.2710
      3 C          62.4843   84.4043   15.0519 C.3     1  UNL1        0.0818
      4 C          63.2075   84.8900   16.2731 C.3     1  UNL1        0.1026
      5 C          62.8999   86.2454   16.8374 C.2     1  UNL1        0.2271
      6 O          62.0646   86.3697   18.0770 O.2     1  UNL1       -0.2748
      7 N          63.4276   87.4764   16.1620 N.am    1  UNL1       -0.2760
      8 C          64.2629   87.3520   14.9222 C.3     1  UNL1        0.1148
      9 C          64.7906   88.5829   14.2468 C.3     1  UNL1        0.1123
     10 N          64.4830   89.9383   14.8111 N.pl3   1  UNL1       -0.3040
     11 C          63.6477   90.0627   16.0508 C.3     1  UNL1        0.1123
     12 C          63.1200   88.8317   16.7262 C.3     1  UNL1        0.1148
     13 C          65.0108   91.1693   14.1357 C.ar    1  UNL1        0.0503
     14 C          65.9083   92.1094   14.8846 C.ar    1  UNL1        0.0170
     15 C          66.4360   93.3404   14.2092 C.ar    1  UNL1        0.0332
     16 C          66.0662   93.6313   12.7849 C.ar    1  UNL1        0.1675
     17 F          66.5939   94.8623   12.1095 F       1  UNL1       -0.2018
     18 C          65.1687   92.6913   12.0360 C.ar    1  UNL1        0.1686
     19 F          64.7990   92.9822   10.6118 F       1  UNL1       -0.2018
     20 C          64.6410   91.4603   12.7115 C.ar    1  UNL1        0.0465
     21 C          62.4148   84.9402   12.5107 C.3     1  UNL1        0.0728
     22 C          62.8822   86.1715   11.7928 C.3     1  UNL1        0.0263
     23 C          62.0776   86.7276   10.6556 C.3     1  UNL1        0.0519
     24 C          61.2923   87.9923   10.8405 C.ar    1  UNL1        0.0162
     25 C          61.3117   88.7007   12.1624 C.ar    1  UNL1       -0.0009
     26 C          60.5265   89.9653   12.3472 C.ar    1  UNL1       -0.0001
     27 C          59.7218   90.5214   11.2100 C.ar    1  UNL1        0.0031
     28 C          59.7024   89.8130    9.8880 C.ar    1  UNL1        0.0372
     29 C          60.4877   88.5484    9.7032 C.ar    1  UNL1        0.1415
     30 O          60.4683   87.8399    8.3812 O.3     1  UNL1       -0.4541
     31 C          61.2536   86.5753    8.1964 C.ar    1  UNL1        0.1415
     32 C          61.2342   85.8668    6.8744 C.ar    1  UNL1        0.0372
     33 C          62.0194   84.6022    6.6896 C.ar    1  UNL1        0.0031
     34 C          62.8241   84.0461    7.8268 C.ar    1  UNL1       -0.0001
     35 C          62.8435   84.7545    9.1488 C.ar    1  UNL1       -0.0009
     36 C          62.0582   86.0192    9.3336 C.ar    1  UNL1        0.0162
@<TRIPOS>BOND
     1     1     2    1
     2     2     3    1
     3     3     4    1
     4     4     5    1
     5     5     6    2
     6     5     7   am
     7     7     8    1
     8     8     9    1
     9     9    10    1
    10    10    13    1
    11    13    14   ar
    12    14    15   ar
    13    15    16   ar
    14    16    17    1
    15    16    18   ar
    16    18    19    1
    17    18    20   ar
    18    10    11    1
    19    11    12    1
    20     2    21    1
    21    21    22    1
    22    22    23    1
    23    23    24    1
    24    24    25   ar
    25    25    26   ar
    26    26    27   ar
    27    27    28   ar
    28    28    29   ar
    29    29    30    1
    30    30    31    1
    31    31    32   ar
    32    32    33   ar
    33    33    34   ar
    34    34    35   ar
    35    35    36   ar
    36    12     7    1
    37    36    23    1
    38    20    13   ar
    39    29    24   ar
    40    36    31   ar
@<TRIPOS>MOLECULE
*****
 36 40 0 0 0
SMALL
GASTEIGER

@<TRIPOS>ATOM
      1 C          64.4862   83.9059   13.6600 C.3     1  UNL1        0.0896
      2 N          63.0917   84.4406   13.7993 N.3     1  UNL1       -0.2710
      3 C          62.4315   84.4718   15.1459 C.3     1  UNL1        0.0818
      4 C          63.1809   84.9919   16.3366 C.3     1  UNL1        0.1026
      5 C          62.8763   86.3580   16.8764 C.2     1  UNL1        0.2271
      6 O          62.0389   86.5066   18.1120 O.2     1  UNL1       -0.2748
      7 N          63.4091   87.5753   16.1806 N.am    1  UNL1       -0.2760
      8 C          64.2465   87.4266   14.9450 C.3     1  UNL1        0.1148
      9 C          64.7794   88.6439   14.2491 C.3     1  UNL1        0.1123
     10 N          64.4748   90.0099   14.7889 N.pl3   1  UNL1       -0.3040
     11 C          63.6374   90.1586   16.0245 C.3     1  UNL1        0.1123
     12 C          63.1046   88.9412   16.7203 C.3     1  UNL1        0.1148
     13 C          65.0076   91.2273   14.0931 C.ar    1  UNL1        0.0503
     14 C          65.9199   92.1688   14.8221 C.ar    1  UNL1        0.0170
     15 C          66.4527   93.3861   14.1262 C.ar    1  UNL1        0.0332
     16 C          66.0733   93.6619   12.7014 C.ar    1  UNL1        0.1675
     17 F          66.6061   94.8793   12.0056 F       1  UNL1       -0.2018
     18 C          65.1610   92.7204   11.9725 C.ar    1  UNL1        0.1686
     19 F          64.7816   92.9963   10.5478 F       1  UNL1       -0.2018
     20 C          64.6282   91.5031   12.6684 C.ar    1  UNL1        0.0465
     21 C          62.3573   84.9440   12.5921 C.3     1  UNL1        0.0728
     22 C          62.8928   86.1150   11.8228 C.3     1  UNL1        0.0263
     23 C          62.1089   86.6806   10.6758 C.3     1  UNL1        0.0519
     24 C          62.1008   85.9747    9.3523 C.ar    1  UNL1        0.0162
     25 C          62.8766   84.7031    9.1758 C.ar    1  UNL1       -0.0009
     26 C          62.8684   83.9972    7.8523 C.ar    1  UNL1       -0.0001
     27 C          62.0845   84.5629    6.7054 C.ar    1  UNL1        0.0031
     28 C          61.3087   85.8345    6.8819 C.ar    1  UNL1        0.0372
     29 C          61.3168   86.5404    8.2054 C.ar    1  UNL1        0.1415
     30 O          60.5410   87.8120    8.3820 O.3     1  UNL1       -0.4541
     31 C          60.5491   88.5179    9.7055 C.ar    1  UNL1        0.1415
     32 C          59.7733   89.7895    9.8821 C.ar    1  UNL1        0.0372
     33 C          59.7815   90.4954   11.2055 C.ar    1  UNL1        0.0031
     34 C          60.5654   89.9297   12.3525 C.ar    1  UNL1       -0.0001
     35 C          61.3412   88.6582   12.1759 C.ar    1  UNL1       -0.0009
     36 C          61.3331   87.9522   10.8524 C.ar    1  UNL1        0.0162
@<TRIPOS>BOND
     1     1     2    1
     2     2     3    1
     3     3     4    1
     4     4     5    1
     5     5     6    2
     6     5     7   am
     7     7     8    1
     8     8     9    1
     9     9    10    1
    10    10    13    1
    11    13    14   ar
    12    14    15   ar
    13    15    16   ar
    14    16    17    1
    15    16    18   ar
    16    18    19    1
    17    18    20   ar
    18    10    11    1
    19    11    12    1
    20     2    21    1
    21    21    22    1
    22    22    23    1
    23    23    24    1
    24    24    25   ar
    25    25    26   ar
    26    26    27   ar
    27    27    28   ar
    28    28    29   ar
    29    29    30    1
    30    30    31    1
    31    31    32   ar
    32    32    33   ar
    33    33    34   ar
    34    34    35   ar
    35    35    36   ar
    36    12     7    1
    37    36    23    1
    38    20    13   ar
    39    29    24   ar
    40    36    31   ar
@<TRIPOS>MOLECULE
*****
 36 40 0 0 0
SMALL
GASTEIGER

@<TRIPOS>ATOM
      1 C          59.9497   90.1019    9.7990 C.3     1  UNL1        0.0896
      2 N          59.8433   88.8421    8.9917 N.3     1  UNL1       -0.2710
      3 C          59.1335   88.8558    7.6703 C.3     1  UNL1        0.0818
      4 C          59.8350   89.3678    6.4473 C.3     1  UNL1        0.1026
      5 C          59.2405   90.4971    5.6591 C.2     1  UNL1        0.2271
      6 O          57.8088   90.8895    5.8740 O.2     1  UNL1       -0.2748
      7 N          60.0776   91.2338    4.6560 N.am    1  UNL1       -0.2760
      8 C          61.5094   90.8413    4.4411 C.3     1  UNL1        0.1148
      9 C          62.3466   91.5781    3.4379 C.3     1  UNL1        0.1123
     10 N          61.7520   92.7074    2.6497 N.pl3   1  UNL1       -0.3040
     11 C          60.3203   93.0999    2.8646 C.3     1  UNL1        0.1123
     12 C          59.4831   92.3631    3.8678 C.3     1  UNL1        0.1148
     13 C          62.5892   93.4442    1.6466 C.ar    1  UNL1        0.0503
     14 C          64.0726   93.2260    1.6028 C.ar    1  UNL1        0.0170
     15 C          64.9098   93.9628    0.5997 C.ar    1  UNL1        0.0332
     16 C          64.2635   94.9178   -0.3597 C.ar    1  UNL1        0.1675
     17 F          65.1007   95.6546   -1.3628 F       1  UNL1       -0.2018
     18 C          62.7801   95.1359   -0.3160 C.ar    1  UNL1        0.1686
     19 F          62.1339   96.0909   -1.2753 F       1  UNL1       -0.2018
     20 C          61.9430   94.3991    0.6872 C.ar    1  UNL1        0.0465
     21 C          60.4468   87.5687    9.5057 C.3     1  UNL1        0.0728
     22 C          61.9351   87.4478    9.6475 C.3     1  UNL1        0.0263
     23 C          62.5538   87.3575   11.0110 C.3     1  UNL1        0.0519
     24 C          63.0018   88.6037   11.7154 C.ar    1  UNL1        0.0162
     25 C          62.8312   89.9403   11.0563 C.ar    1  UNL1       -0.0009
     26 C          63.2793   91.1865   11.7607 C.ar    1  UNL1       -0.0001
     27 C          63.8979   91.0961   13.1242 C.ar    1  UNL1        0.0031
     28 C          64.0685   89.7595   13.7833 C.ar    1  UNL1        0.0372
     29 C          63.6205   88.5134   13.0789 C.ar    1  UNL1        0.1415
     30 O          63.7911   87.1767   13.7380 O.3     1  UNL1       -0.4541
     31 C          63.3430   85.9305   13.0336 C.ar    1  UNL1        0.1415
     32 C          63.5136   84.5939   13.6926 C.ar    1  UNL1        0.0372
     33 C          63.0656   83.3477   12.9882 C.ar    1  UNL1        0.0031
     34 C          62.4469   83.4381   11.6247 C.ar    1  UNL1       -0.0001
     35 C          62.2763   84.7746   10.9657 C.ar    1  UNL1       -0.0009
     36 C          62.7244   86.0209   11.6701 C.ar    1  UNL1        0.0162
@<TRIPOS>BOND
     1     1     2    1
     2     2     3    1
     3     3     4    1
     4     4     5    1
     5     5     6    2
     6     5     7   am
     7     7     8    1
     8     8     9    1
     9     9    10    1
    10    10    13    1
    11    13    14   ar
    12    14    15   ar
    13    15    16   ar
    14    16    17    1
    15    16    18   ar
    16    18    19    1
    17    18    20   ar
    18    10    11    1
    19    11    12    1
    20     2    21    1
    21    21    22    1
    22    22    23    1
    23    23    24    1
    24    24    25   ar
    25    25    26   ar
    26    26    27   ar
    27    27    28   ar
    28    28    29   ar
    29    29    30    1
    30    30    31    1
    31    31    32   ar
    32    32    33   ar
    33    33    34   ar
    34    34    35   ar
    35    35    36   ar
    36    12     7    1
    37    36    23    1
    38    20    13   ar
    39    29    24   ar
    40    36    31   ar
