@<TRIPOS>MOLECULE
*****
 27 29 0 0 0
SMALL
GASTEIGER

@<TRIPOS>ATOM
      1 C          64.1861   91.2346   13.3472 C.3     1  UNL1        0.1599
      2 C          63.5068   90.3400   12.3531 C.ar    1  UNL1        0.0066
      3 C          62.9496   90.9150   11.0847 C.ar    1  UNL1        0.0012
      4 C          62.2703   90.0204   10.0906 C.ar    1  UNL1        0.0367
      5 C          62.1483   88.5507   10.3649 C.ar    1  UNL1        0.1387
      6 C          62.7056   87.9757   11.6332 C.ar    1  UNL1        0.0367
      7 C          63.3848   88.8703   12.6274 C.ar    1  UNL1        0.0012
      8 O          61.4691   87.6561    9.3708 O.3     1  UNL1       -0.4714
      9 C          62.0616   86.3189    9.0377 C.3     1  UNL1        0.2525
     10 O          63.5982   91.4187   14.7149 O.3     1  UNL1       -0.3499
     11 C          63.8862   90.4192   15.7958 C.3     1  UNL1        0.1429
     12 C          62.8127   89.4748   16.2494 C.3     1  UNL1        0.0368
     13 C          63.1721   88.2626   17.0564 C.3     1  UNL1        0.0289
     14 C          63.5767   84.2583   15.0434 C.ar    1  UNL1        0.1387
     15 C          62.5482   84.4576   16.1169 C.ar    1  UNL1        0.0366
     16 C          62.4133   85.7924   16.7879 C.ar    1  UNL1       -0.0012
     17 C          63.3070   86.9279   16.3854 C.ar    1  UNL1       -0.0219
     18 C          64.3355   86.7286   15.3119 C.ar    1  UNL1       -0.0012
     19 C          64.4703   85.3938   14.6409 C.ar    1  UNL1        0.0366
     20 C          62.5162   82.0274   14.2382 C.3     1  UNL1        0.2525
     21 O          63.7115   82.9236   14.3724 O.3     1  UNL1       -0.4714
     22 C          65.4532   91.9452   12.9736 C.3     1  UNL1        0.1416
     23 N          66.4396   92.3283   14.0367 N.ar    1  UNL1       -0.3050
     24 C          67.2629   91.3811   14.8583 C.ar    1  UNL1        0.0981
     25 C          68.1080   92.1933   15.7943 C.ar    1  UNL1        0.1193
     26 N          67.8071   93.6425   15.5512 N.ar    1  UNL1       -0.2223
     27 C          66.7760   93.7261   14.4650 C.ar    1  UNL1        0.1787
@<TRIPOS>BOND
     1    20    21    1
     2    21    14    1
     3    14    15   ar
     4    15    16   ar
     5    16    17   ar
     6    17    13    1
     7    13    12    1
     8    12    11    1
     9    11    10    1
    10    10     1    1
    11     1    22    1
    12    22    23    1
    13    23    24   ar
    14    24    25   ar
    15    25    26   ar
    16    26    27   ar
    17     1     2    1
    18     2     3   ar
    19     3     4   ar
    20     4     5   ar
    21     5     8    1
    22     8     9    1
    23     5     6   ar
    24     6     7   ar
    25    17    18   ar
    26    18    19   ar
    27    19    14   ar
    28    27    23   ar
    29     7     2   ar
@<TRIPOS>MOLECULE
*****
 27 29 0 0 0
SMALL
GASTEIGER

@<TRIPOS>ATOM
      1 C          63.0906   85.0194   12.2627 C.3     1  UNL1        0.1599
      2 C          62.3325   85.6301   11.1216 C.ar    1  UNL1        0.0066
      3 C          61.2307   86.6113   11.3928 C.ar    1  UNL1        0.0012
      4 C          60.4726   87.2220   10.2517 C.ar    1  UNL1        0.0367
      5 C          60.8161   86.8515    8.8393 C.ar    1  UNL1        0.1387
      6 C          61.9178   85.8704    8.5681 C.ar    1  UNL1        0.0367
      7 C          62.6760   85.2596    9.7092 C.ar    1  UNL1        0.0012
      8 O          60.0580   87.4622    7.6982 O.3     1  UNL1       -0.4714
      9 C          59.7023   88.9192    7.7284 C.3     1  UNL1        0.2525
     10 O          63.0427   85.6549   13.6206 O.3     1  UNL1       -0.3499
     11 C          64.2942   85.7696   14.4396 C.3     1  UNL1        0.1429
     12 C          64.7342   87.1084   14.9534 C.3     1  UNL1        0.0368
     13 C          63.7974   88.2784   14.8964 C.3     1  UNL1        0.0289
     14 C          64.7998   91.8405   12.3357 C.ar    1  UNL1        0.1387
     15 C          63.7720   90.8503   11.8740 C.ar    1  UNL1        0.0366
     16 C          63.4379   89.6630   12.7276 C.ar    1  UNL1       -0.0012
     17 C          64.1315   89.4658   14.0428 C.ar    1  UNL1       -0.0219
     18 C          65.1593   90.4560   14.5045 C.ar    1  UNL1       -0.0012
     19 C          65.4934   91.6433   13.6509 C.ar    1  UNL1        0.0366
     20 C          66.1915   93.9954   11.9240 C.3     1  UNL1        0.2525
     21 O          65.1339   93.0278   11.4821 O.3     1  UNL1       -0.4714
     22 C          63.8968   83.7730   12.0460 C.3     1  UNL1        0.1416
     23 N          63.4532   82.4772   12.6576 N.ar    1  UNL1       -0.3050
     24 C          62.8514   81.3160   11.9232 C.ar    1  UNL1        0.0981
     25 C          62.5598   80.2361   12.9227 C.ar    1  UNL1        0.1193
     26 N          62.9816   80.7299   14.2748 N.ar    1  UNL1       -0.2223
     27 C          63.5337   82.1150   14.1111 C.ar    1  UNL1        0.1787
@<TRIPOS>BOND
     1    20    21    1
     2    21    14    1
     3    14    15   ar
     4    15    16   ar
     5    16    17   ar
     6    17    13    1
     7    13    12    1
     8    12    11    1
     9    11    10    1
    10    10     1    1
    11     1    22    1
    12    22    23    1
    13    23    24   ar
    14    24    25   ar
    15    25    26   ar
    16    26    27   ar
    17     1     2    1
    18     2     3   ar
    19     3     4   ar
    20     4     5   ar
    21     5     8    1
    22     8     9    1
    23     5     6   ar
    24     6     7   ar
    25    17    18   ar
    26    18    19   ar
    27    19    14   ar
    28    27    23   ar
    29     7     2   ar
@<TRIPOS>MOLECULE
*****
 27 29 0 0 0
SMALL
GASTEIGER

@<TRIPOS>ATOM
      1 C          64.0920   90.8429   14.8464 C.3     1  UNL1        0.1599
      2 C          63.8833   89.4292   15.3024 C.ar    1  UNL1        0.0066
      3 C          64.4339   88.2915   14.4945 C.ar    1  UNL1        0.0012
      4 C          64.2253   86.8779   14.9505 C.ar    1  UNL1        0.0367
      5 C          63.4661   86.6018   16.2144 C.ar    1  UNL1        0.1387
      6 C          62.9155   87.7394   17.0223 C.ar    1  UNL1        0.0367
      7 C          63.1241   89.1531   16.5663 C.ar    1  UNL1        0.0012
      8 O          63.2574   85.1881   16.6704 O.3     1  UNL1       -0.4714
      9 C          62.8032   84.1443   15.6936 C.3     1  UNL1        0.2525
     10 O          63.4291   91.3322   13.5929 O.3     1  UNL1       -0.3499
     11 C          63.5257   90.5279   12.3304 C.3     1  UNL1        0.1429
     12 C          62.3627   89.6933   11.8821 C.3     1  UNL1        0.0368
     13 C          61.7519   89.9222   10.5314 C.3     1  UNL1        0.0289
     14 C          60.6057   86.4140    7.9566 C.ar    1  UNL1        0.1387
     15 C          61.8116   86.3302    8.8448 C.ar    1  UNL1        0.0366
     16 C          62.1936   87.4996    9.7030 C.ar    1  UNL1       -0.0012
     17 C          61.3698   88.7528    9.6731 C.ar    1  UNL1       -0.0219
     18 C          60.1640   88.8365    8.7850 C.ar    1  UNL1       -0.0012
     19 C          59.7819   87.6672    7.9267 C.ar    1  UNL1        0.0366
     20 C          61.2825   84.4715    6.3696 C.3     1  UNL1        0.2525
     21 O          60.2237   85.2446    7.0984 O.3     1  UNL1       -0.4714
     22 C          64.9635   91.7673   15.6439 C.3     1  UNL1        0.1416
     23 N          66.3689   92.0438   15.1983 N.ar    1  UNL1       -0.3050
     24 C          67.4977   92.5011   16.0739 C.ar    1  UNL1        0.0981
     25 C          68.7186   92.6514   15.2155 C.ar    1  UNL1        0.1193
     26 N          68.3444   92.2871   13.8094 N.ar    1  UNL1       -0.2223
     27 C          66.8922   91.9115   13.7986 C.ar    1  UNL1        0.1787
@<TRIPOS>BOND
     1    20    21    1
     2    21    14    1
     3    14    15   ar
     4    15    16   ar
     5    16    17   ar
     6    17    13    1
     7    13    12    1
     8    12    11    1
     9    11    10    1
    10    10     1    1
    11     1    22    1
    12    22    23    1
    13    23    24   ar
    14    24    25   ar
    15    25    26   ar
    16    26    27   ar
    17     1     2    1
    18     2     3   ar
    19     3     4   ar
    20     4     5   ar
    21     5     8    1
    22     8     9    1
    23     5     6   ar
    24     6     7   ar
    25    17    18   ar
    26    18    19   ar
    27    19    14   ar
    28    27    23   ar
    29     7     2   ar
@<TRIPOS>MOLECULE
*****
 27 29 0 0 0
SMALL
GASTEIGER

@<TRIPOS>ATOM
      1 C          64.2583   90.9723   13.6567 C.3     1  UNL1        0.1599
      2 C          63.5668   90.2073   12.5674 C.ar    1  UNL1        0.0066
      3 C          63.4260   88.7175   12.6702 C.ar    1  UNL1        0.0012
      4 C          62.7345   87.9525   11.5809 C.ar    1  UNL1        0.0367
      5 C          62.1838   88.6774   10.3887 C.ar    1  UNL1        0.1387
      6 C          62.3247   90.1672   10.2858 C.ar    1  UNL1        0.0367
      7 C          63.0162   90.9322   11.3752 C.ar    1  UNL1        0.0012
      8 O          61.4923   87.9125    9.2994 O.3     1  UNL1       -0.4714
      9 C          60.0064   88.0278    9.1289 C.3     1  UNL1        0.2525
     10 O          63.5133   91.3365   14.9066 O.3     1  UNL1       -0.3499
     11 C          63.6573   90.4927   16.1384 C.3     1  UNL1        0.1429
     12 C          62.7198   89.3461   16.3758 C.3     1  UNL1        0.0368
     13 C          63.1964   88.1268   17.1081 C.3     1  UNL1        0.0289
     14 C          63.5240   84.1911   14.9510 C.ar    1  UNL1        0.1387
     15 C          62.5203   84.3614   16.0526 C.ar    1  UNL1        0.0366
     16 C          62.4111   85.6733   16.7716 C.ar    1  UNL1       -0.0012
     17 C          63.3056   86.8149   16.3891 C.ar    1  UNL1       -0.0219
     18 C          64.3093   86.6447   15.2875 C.ar    1  UNL1       -0.0012
     19 C          64.4186   85.3328   14.5685 C.ar    1  UNL1        0.0366
     20 C          64.3426   82.8039   12.9125 C.3     1  UNL1        0.2525
     21 O          63.6332   82.8792   14.2320 O.3     1  UNL1       -0.4714
     22 C          65.6949   91.3730   13.4962 C.3     1  UNL1        0.1416
     23 N          66.0583   92.5178   12.5977 N.ar    1  UNL1       -0.3050
     24 C          66.2261   92.4512   11.1086 C.ar    1  UNL1        0.0981
     25 C          66.5892   93.8225   10.6211 C.ar    1  UNL1        0.1193
     26 N          66.6458   94.7368   11.8090 N.ar    1  UNL1       -0.2223
     27 C          66.3177   93.9305   13.0306 C.ar    1  UNL1        0.1787
@<TRIPOS>BOND
     1    20    21    1
     2    21    14    1
     3    14    15   ar
     4    15    16   ar
     5    16    17   ar
     6    17    13    1
     7    13    12    1
     8    12    11    1
     9    11    10    1
    10    10     1    1
    11     1    22    1
    12    22    23    1
    13    23    24   ar
    14    24    25   ar
    15    25    26   ar
    16    26    27   ar
    17     1     2    1
    18     2     3   ar
    19     3     4   ar
    20     4     5   ar
    21     5     8    1
    22     8     9    1
    23     5     6   ar
    24     6     7   ar
    25    17    18   ar
    26    18    19   ar
    27    19    14   ar
    28    27    23   ar
    29     7     2   ar
@<TRIPOS>MOLECULE
*****
 27 29 0 0 0
SMALL
GASTEIGER

@<TRIPOS>ATOM
      1 C          63.4071   85.3436   13.0552 C.3     1  UNL1        0.1599
      2 C          62.7185   85.9015   11.8450 C.ar    1  UNL1        0.0066
      3 C          62.5489   87.3844   11.6954 C.ar    1  UNL1        0.0012
      4 C          61.8604   87.9423   10.4852 C.ar    1  UNL1        0.0367
      5 C          61.3415   87.0173    9.4245 C.ar    1  UNL1        0.1387
      6 C          61.5111   85.5345    9.5740 C.ar    1  UNL1        0.0367
      7 C          62.1996   84.9765   10.7842 C.ar    1  UNL1        0.0012
      8 O          60.6530   87.5752    8.2143 O.3     1  UNL1       -0.4714
      9 C          59.1906   87.3196    7.9988 C.3     1  UNL1        0.2525
     10 O          63.3972   86.1109   14.3441 O.3     1  UNL1       -0.3499
     11 C          64.5209   87.0509   14.6660 C.3     1  UNL1        0.1429
     12 C          64.2223   88.4461   15.1291 C.3     1  UNL1        0.0368
     13 C          63.6166   89.4377   14.1806 C.3     1  UNL1        0.0289
     14 C          66.1333   92.7651   12.4939 C.ar    1  UNL1        0.1387
     15 C          64.9221   92.2888   11.7482 C.ar    1  UNL1        0.0366
     16 C          64.0832   91.1797   12.3104 C.ar    1  UNL1       -0.0012
     17 C          64.4555   90.5468   13.6184 C.ar    1  UNL1       -0.0219
     18 C          65.6667   91.0231   14.3641 C.ar    1  UNL1       -0.0012
     19 C          66.5056   92.1322   13.8019 C.ar    1  UNL1        0.0366
     20 C          66.3246   94.9914   11.1686 C.3     1  UNL1        0.2525
     21 O          66.9722   93.8742   11.9317 O.3     1  UNL1       -0.4714
     22 C          64.1056   84.0185   12.9766 C.3     1  UNL1        0.1416
     23 N          63.3664   82.7595   13.3211 N.ar    1  UNL1       -0.3050
     24 C          63.4146   81.4710   12.5548 C.ar    1  UNL1        0.0981
     25 C          62.5273   80.4831   13.2526 C.ar    1  UNL1        0.1193
     26 N          61.9308   81.1611   14.4502 N.ar    1  UNL1       -0.2223
     27 C          62.4493   82.5681   14.4927 C.ar    1  UNL1        0.1787
@<TRIPOS>BOND
     1    20    21    1
     2    21    14    1
     3    14    15   ar
     4    15    16   ar
     5    16    17   ar
     6    17    13    1
     7    13    12    1
     8    12    11    1
     9    11    10    1
    10    10     1    1
    11     1    22    1
    12    22    23    1
    13    23    24   ar
    14    24    25   ar
    15    25    26   ar
    16    26    27   ar
    17     1     2    1
    18     2     3   ar
    19     3     4   ar
    20     4     5   ar
    21     5     8    1
    22     8     9    1
    23     5     6   ar
    24     6     7   ar
    25    17    18   ar
    26    18    19   ar
    27    19    14   ar
    28    27    23   ar
    29     7     2   ar
@<TRIPOS>MOLECULE
*****
 27 29 0 0 0
SMALL
GASTEIGER

@<TRIPOS>ATOM
      1 C          62.2414   86.5383   10.7464 C.3     1  UNL1        0.1599
      2 C          62.6259   85.1876   11.2734 C.ar    1  UNL1        0.0066
      3 C          62.4150   84.8597   12.7219 C.ar    1  UNL1        0.0012
      4 C          62.7995   83.5090   13.2489 C.ar    1  UNL1        0.0367
      5 C          63.3949   82.4861   12.3274 C.ar    1  UNL1        0.1387
      6 C          63.6059   82.8139   10.8790 C.ar    1  UNL1        0.0367
      7 C          63.2214   84.1647   10.3519 C.ar    1  UNL1        0.0012
      8 O          63.7794   81.1354   12.8544 O.3     1  UNL1       -0.4714
      9 C          62.8287   80.3731   13.7291 C.3     1  UNL1        0.2525
     10 O          61.9000   87.6456   11.6989 O.3     1  UNL1       -0.3499
     11 C          62.7423   88.8862   11.7397 C.3     1  UNL1        0.1429
     12 C          63.6215   89.1571   12.9245 C.3     1  UNL1        0.0368
     13 C          63.7203   90.5456   13.4832 C.3     1  UNL1        0.0289
     14 C          66.3790   93.5856   11.4984 C.ar    1  UNL1        0.1387
     15 C          65.3273   92.8740   10.7000 C.ar    1  UNL1        0.0366
     16 C          64.4411   91.8606   11.3616 C.ar    1  UNL1       -0.0012
     17 C          64.6065   91.5589   12.8216 C.ar    1  UNL1       -0.0219
     18 C          65.6582   92.2706   13.6199 C.ar    1  UNL1       -0.0012
     19 C          66.5445   93.2840   12.9583 C.ar    1  UNL1        0.0366
     20 C          66.6845   95.8852   10.3285 C.3     1  UNL1        0.2525
     21 O          67.2652   94.5990   10.8368 O.3     1  UNL1       -0.4714
     22 C          62.1983   86.7817    9.2669 C.3     1  UNL1        0.1416
     23 N          60.8891   87.0629    8.5909 N.ar    1  UNL1       -0.3050
     24 C          60.2334   88.4059    8.4631 C.ar    1  UNL1        0.0981
     25 C          58.9448   88.2235    7.7172 C.ar    1  UNL1        0.1193
     26 N          58.8042   86.7677    7.3840 N.ar    1  UNL1       -0.2223
     27 C          60.0058   86.0504    7.9240 C.ar    1  UNL1        0.1787
@<TRIPOS>BOND
     1    20    21    1
     2    21    14    1
     3    14    15   ar
     4    15    16   ar
     5    16    17   ar
     6    17    13    1
     7    13    12    1
     8    12    11    1
     9    11    10    1
    10    10     1    1
    11     1    22    1
    12    22    23    1
    13    23    24   ar
    14    24    25   ar
    15    25    26   ar
    16    26    27   ar
    17     1     2    1
    18     2     3   ar
    19     3     4   ar
    20     4     5   ar
    21     5     8    1
    22     8     9    1
    23     5     6   ar
    24     6     7   ar
    25    17    18   ar
    26    18    19   ar
    27    19    14   ar
    28    27    23   ar
    29     7     2   ar
@<TRIPOS>MOLECULE
*****
 27 29 0 0 0
SMALL
GASTEIGER

@<TRIPOS>ATOM
      1 C          63.2643   89.6867   12.3335 C.3     1  UNL1        0.1599
      2 C          62.3076   89.3201   11.2380 C.ar    1  UNL1        0.0066
      3 C          62.3512   87.9486   10.6320 C.ar    1  UNL1        0.0012
      4 C          61.3944   87.5820    9.5365 C.ar    1  UNL1        0.0367
      5 C          60.3941   88.5868    9.0469 C.ar    1  UNL1        0.1387
      6 C          60.3505   89.9582    9.6529 C.ar    1  UNL1        0.0367
      7 C          61.3072   90.3249   10.7485 C.ar    1  UNL1        0.0012
      8 O          59.4373   88.2202    7.9514 O.3     1  UNL1       -0.4714
      9 C          58.9807   86.7995    7.7987 C.3     1  UNL1        0.2525
     10 O          64.0060   88.6124   13.0723 O.3     1  UNL1       -0.3499
     11 C          64.1598   88.6958   14.5621 C.3     1  UNL1        0.1429
     12 C          64.1208   87.4464   15.3912 C.3     1  UNL1        0.0368
     13 C          64.8893   86.2337   14.9568 C.3     1  UNL1        0.0289
     14 C          62.7167   82.6957   13.2212 C.ar    1  UNL1        0.1387
     15 C          62.7541   83.9944   12.4716 C.ar    1  UNL1        0.0366
     16 C          63.4783   85.1737   13.0501 C.ar    1  UNL1       -0.0012
     17 C          64.1651   85.0544   14.3783 C.ar    1  UNL1       -0.0219
     18 C          64.1277   83.7557   15.1279 C.ar    1  UNL1       -0.0012
     19 C          63.4035   82.5763   14.5493 C.ar    1  UNL1        0.0366
     20 C          62.5157   80.1292   12.8709 C.3     1  UNL1        0.2525
     21 O          61.9925   81.5164   12.6427 O.3     1  UNL1       -0.4714
     22 C          63.4794   91.1277   12.6904 C.3     1  UNL1        0.1416
     23 N          64.7334   91.8283   12.2581 N.ar    1  UNL1       -0.3050
     24 C          65.0410   92.3095   10.8711 C.ar    1  UNL1        0.0981
     25 C          66.3976   92.9493   10.8926 C.ar    1  UNL1        0.1193
     26 N          66.9283   92.8635   12.2929 N.ar    1  UNL1       -0.2223
     27 C          65.8998   92.1707   13.1369 C.ar    1  UNL1        0.1787
@<TRIPOS>BOND
     1    20    21    1
     2    21    14    1
     3    14    15   ar
     4    15    16   ar
     5    16    17   ar
     6    17    13    1
     7    13    12    1
     8    12    11    1
     9    11    10    1
    10    10     1    1
    11     1    22    1
    12    22    23    1
    13    23    24   ar
    14    24    25   ar
    15    25    26   ar
    16    26    27   ar
    17     1     2    1
    18     2     3   ar
    19     3     4   ar
    20     4     5   ar
    21     5     8    1
    22     8     9    1
    23     5     6   ar
    24     6     7   ar
    25    17    18   ar
    26    18    19   ar
    27    19    14   ar
    28    27    23   ar
    29     7     2   ar
@<TRIPOS>MOLECULE
*****
 27 29 0 0 0
SMALL
GASTEIGER

@<TRIPOS>ATOM
      1 C          62.0944   87.8093   11.1352 C.3     1  UNL1        0.1599
      2 C          62.8539   88.9281   11.7845 C.ar    1  UNL1        0.0066
      3 C          62.9403   90.2658   11.1112 C.ar    1  UNL1        0.0012
      4 C          63.6998   91.3845   11.7605 C.ar    1  UNL1        0.0367
      5 C          64.3729   91.1656   13.0830 C.ar    1  UNL1        0.1387
      6 C          64.2865   89.8280   13.7562 C.ar    1  UNL1        0.0367
      7 C          63.5270   88.7092   13.1070 C.ar    1  UNL1        0.0012
      8 O          65.1324   92.2843   13.7322 O.3     1  UNL1       -0.4714
      9 C          66.2862   91.9793   14.6410 C.3     1  UNL1        0.2525
     10 O          62.8129   86.5640   10.7078 O.3     1  UNL1       -0.3499
     11 C          62.2400   85.2172   11.0366 C.3     1  UNL1        0.1429
     12 C          63.1144   83.9992   10.9928 C.3     1  UNL1        0.0368
     13 C          63.9719   83.6488   12.1725 C.3     1  UNL1        0.0289
     14 C          62.9184   85.2050   16.2613 C.ar    1  UNL1        0.1387
     15 C          64.0373   85.8336   15.4850 C.ar    1  UNL1        0.0366
     16 C          64.3884   85.3149   14.1220 C.ar    1  UNL1       -0.0012
     17 C          63.6207   84.1675   13.5355 C.ar    1  UNL1       -0.0219
     18 C          62.5018   83.5389   14.3119 C.ar    1  UNL1       -0.0012
     19 C          62.1506   84.0576   15.6748 C.ar    1  UNL1        0.0366
     20 C          62.7022   87.1864   17.9278 C.3     1  UNL1        0.2525
     21 O          62.5672   85.7237   17.6243 O.3     1  UNL1       -0.4714
     22 C          60.6162   87.9360   10.9134 C.3     1  UNL1        0.1416
     23 N          60.0679   87.9742    9.5177 N.ar    1  UNL1       -0.3050
     24 C          59.4675   86.8180    8.7743 C.ar    1  UNL1        0.0981
     25 C          59.0522   87.3046    7.4176 C.ar    1  UNL1        0.1193
     26 N          59.3959   88.7616    7.3225 N.ar    1  UNL1       -0.2223
     27 C          60.0236   89.1755    8.6204 C.ar    1  UNL1        0.1787
@<TRIPOS>BOND
     1    20    21    1
     2    21    14    1
     3    14    15   ar
     4    15    16   ar
     5    16    17   ar
     6    17    13    1
     7    13    12    1
     8    12    11    1
     9    11    10    1
    10    10     1    1
    11     1    22    1
    12    22    23    1
    13    23    24   ar
    14    24    25   ar
    15    25    26   ar
    16    26    27   ar
    17     1     2    1
    18     2     3   ar
    19     3     4   ar
    20     4     5   ar
    21     5     8    1
    22     8     9    1
    23     5     6   ar
    24     6     7   ar
    25    17    18   ar
    26    18    19   ar
    27    19    14   ar
    28    27    23   ar
    29     7     2   ar
@<TRIPOS>MOLECULE
*****
 27 29 0 0 0
SMALL
GASTEIGER

@<TRIPOS>ATOM
      1 C          63.3999   89.9782   13.0787 C.3     1  UNL1        0.1599
      2 C          64.2885   91.0945   12.6158 C.ar    1  UNL1        0.0066
      3 C          65.3047   91.6810   13.5504 C.ar    1  UNL1        0.0012
      4 C          66.1933   92.7973   13.0876 C.ar    1  UNL1        0.0367
      5 C          66.0657   93.3271   11.6901 C.ar    1  UNL1        0.1387
      6 C          65.0495   92.7407   10.7555 C.ar    1  UNL1        0.0367
      7 C          64.1609   91.6244   11.2183 C.ar    1  UNL1        0.0012
      8 O          66.9543   94.4434   11.2272 O.3     1  UNL1       -0.4714
      9 C          67.2771   94.5899    9.7696 C.3     1  UNL1        0.2525
     10 O          62.8107   90.0113   14.4577 O.3     1  UNL1       -0.3499
     11 C          63.5732   89.4337   15.6132 C.3     1  UNL1        0.1429
     12 C          63.5525   87.9545   15.8611 C.3     1  UNL1        0.0368
     13 C          64.4245   87.0453   15.0469 C.3     1  UNL1        0.0289
     14 C          63.2778   82.7293   14.4930 C.ar    1  UNL1        0.1387
     15 C          62.5939   83.5587   15.5391 C.ar    1  UNL1        0.0366
     16 C          62.9761   84.9974   15.7237 C.ar    1  UNL1       -0.0012
     17 C          64.0423   85.6067   14.8623 C.ar    1  UNL1       -0.0219
     18 C          64.7262   84.7772   13.8163 C.ar    1  UNL1       -0.0012
     19 C          64.3440   83.3385   13.6317 C.ar    1  UNL1        0.0366
     20 C          62.7908   80.7136   12.9278 C.3     1  UNL1        0.2525
     21 O          62.8956   81.2906   14.3084 O.3     1  UNL1       -0.4714
     22 C          63.1006   88.8288   12.1626 C.3     1  UNL1        0.1416
     23 N          62.0077   88.9480   11.1421 N.ar    1  UNL1       -0.3050
     24 C          61.8545   88.1042    9.9115 C.ar    1  UNL1        0.0981
     25 C          60.6282   88.5666    9.1819 C.ar    1  UNL1        0.1193
     26 N          60.0234   89.6963    9.9616 N.ar    1  UNL1       -0.2223
     27 C          60.8759   89.9321   11.1732 C.ar    1  UNL1        0.1787
@<TRIPOS>BOND
     1    20    21    1
     2    21    14    1
     3    14    15   ar
     4    15    16   ar
     5    16    17   ar
     6    17    13    1
     7    13    12    1
     8    12    11    1
     9    11    10    1
    10    10     1    1
    11     1    22    1
    12    22    23    1
    13    23    24   ar
    14    24    25   ar
    15    25    26   ar
    16    26    27   ar
    17     1     2    1
    18     2     3   ar
    19     3     4   ar
    20     4     5   ar
    21     5     8    1
    22     8     9    1
    23     5     6   ar
    24     6     7   ar
    25    17    18   ar
    26    18    19   ar
    27    19    14   ar
    28    27    23   ar
    29     7     2   ar
