@<TRIPOS>MOLECULE
*****
 39 42 0 0 0
SMALL
GASTEIGER

@<TRIPOS>ATOM
      1 C          61.9890   82.1127   11.3473 C.3     1  UNL1        0.0326
      2 C          62.3573   82.4399   12.7640 C.ar    1  UNL1       -0.0045
      3 C          62.3080   81.3731   13.8173 C.ar    1  UNL1       -0.0027
      4 C          62.6763   81.7003   15.2341 C.ar    1  UNL1        0.0013
      5 C          63.0940   83.0943   15.5976 C.ar    1  UNL1        0.0206
      6 C          63.1434   84.1611   14.5443 C.ar    1  UNL1        0.0996
      7 N          63.5136   85.6135   14.6033 N.ar    1  UNL1       -0.2135
      8 C          63.3741   86.1840   13.2231 C.ar    1  UNL1        0.2039
      9 N          62.9177   85.0841   12.3110 N.ar    1  UNL1       -0.2999
     10 C          62.7750   83.8339   13.1275 C.ar    1  UNL1        0.0758
     11 C          62.6507   85.2119   10.8405 C.3     1  UNL1        0.1078
     12 C          63.5430   84.4050    9.9444 C.3     1  UNL1        0.0245
     13 C          63.5317   84.3167    8.4471 C.3     1  UNL1        0.0037
     14 C          62.6253   85.0133    7.4759 C.3     1  UNL1        0.0216
     15 C          61.5064   85.9704    7.7623 C.3     1  UNL1        0.0938
     16 N          61.0174   86.4672    9.0904 N.am    1  UNL1       -0.2742
     17 C          59.8672   87.4287    9.0424 C.2     1  UNL1        0.2489
     18 O          59.3018   87.9860   10.3151 O.2     1  UNL1       -0.2699
     19 C          61.5268   86.1296   10.4604 C.3     1  UNL1        0.1162
     20 C          59.2823   87.8329    7.7216 C.2     1  UNL1        0.0548
     21 C          59.4126   89.2495    7.2457 C.2     1  UNL1       -0.0041
     22 C          58.8278   89.6538    5.9249 C.3     1  UNL1        0.0991
     23 N          59.3113   90.8973    5.2396 N.3     1  UNL1       -0.2665
     24 C          60.7708   91.0690    4.9392 C.3     1  UNL1        0.0899
     25 C          58.3352   91.9692    4.8546 C.3     1  UNL1        0.0899
     26 N          63.6438   87.6048   12.8248 N.am    1  UNL1       -0.2518
     27 C          64.2142   88.5681   13.8230 C.2     1  UNL1        0.2516
     28 O          64.5151   88.1107   15.2196 O.2     1  UNL1       -0.2697
     29 H          63.4464   87.9050   11.9082 H       1  UNL1        0.1580
     30 C          64.4839   89.9889   13.4248 C.ar    1  UNL1        0.0537
     31 C          63.8180   90.5669   12.2112 C.ar    1  UNL1        0.0045
     32 C          64.0877   91.9877   11.8130 C.ar    1  UNL1        0.0001
     33 C          65.0232   92.8305   12.6283 C.ar    1  UNL1        0.0039
     34 C          65.6890   92.2525   13.8418 C.ar    1  UNL1        0.0716
     35 C          65.4193   90.8317   14.2400 C.ar    1  UNL1        0.0084
     36 C          66.6244   93.0953   14.6570 C.3     1  UNL1        0.4186
     37 F          67.5599   93.9381   15.4723 F       1  UNL1       -0.1659
     38 F          66.4410   94.2305   13.6939 F       1  UNL1       -0.1659
     39 F          66.8078   91.9601   15.6201 F       1  UNL1       -0.1659
@<TRIPOS>BOND
     1     1     2    1
     2     2     3   ar
     3     3     4   ar
     4     4     5   ar
     5     5     6   ar
     6     6     7   ar
     7     7     8   ar
     8     8    26    1
     9    26    27   am
    10    27    28    2
    11    27    30    1
    12    30    31   ar
    13    31    32   ar
    14    32    33   ar
    15    33    34   ar
    16    34    36    1
    17    36    37    1
    18    36    38    1
    19    36    39    1
    20    34    35   ar
    21     8     9   ar
    22    11     9    1
    23    11    12    1
    24    12    13    1
    25    13    14    1
    26    14    15    1
    27    15    16    1
    28    16    17   am
    29    17    18    2
    30    17    20    1
    31    20    21    2
    32    21    22    1
    33    22    23    1
    34    23    24    1
    35    23    25    1
    36    16    19    1
    37     9    10   ar
    38    10     2   ar
    39    10     6   ar
    40    35    30   ar
    41    19    11    1
    42    26    29    1
@<TRIPOS>MOLECULE
*****
 39 42 0 0 0
SMALL
GASTEIGER

@<TRIPOS>ATOM
      1 C          62.3175   81.5537   10.6648 C.3     1  UNL1        0.0326
      2 C          62.7542   81.3410   12.0840 C.ar    1  UNL1       -0.0045
      3 C          62.7707   79.9579   12.6643 C.ar    1  UNL1       -0.0027
      4 C          63.2073   79.7452   14.0835 C.ar    1  UNL1        0.0013
      5 C          63.6275   80.9155   14.9224 C.ar    1  UNL1        0.0206
      6 C          63.6110   82.2986   14.3421 C.ar    1  UNL1        0.0996
      7 N          63.9676   83.6350   14.9226 N.ar    1  UNL1       -0.2135
      8 C          63.7513   84.6736   13.8622 C.ar    1  UNL1        0.2039
      9 N          63.2610   83.9792   12.6263 N.ar    1  UNL1       -0.2999
     10 C          63.1743   82.5113   12.9229 C.ar    1  UNL1        0.0758
     11 C          62.9178   84.6370   11.3227 C.3     1  UNL1        0.1078
     12 C          63.6347   84.1058   10.1169 C.3     1  UNL1        0.0245
     13 C          63.5139   84.5454    8.6880 C.3     1  UNL1        0.0037
     14 C          62.6463   85.6249    8.1117 C.3     1  UNL1        0.0216
     15 C          61.6853   86.5313    8.8222 C.3     1  UNL1        0.0938
     16 N          61.3545   86.5822   10.2843 N.am    1  UNL1       -0.2742
     17 C          60.3412   87.6123   10.6870 C.2     1  UNL1        0.2489
     18 O          59.9392   87.7466   12.1258 O.2     1  UNL1       -0.2699
     19 C          61.9030   85.7391   11.3972 C.3     1  UNL1        0.1162
     20 C          59.7300   88.5081    9.6507 C.2     1  UNL1        0.0548
     21 C          60.6060   89.3881    8.8090 C.2     1  UNL1       -0.0041
     22 C          59.9949   90.2839    7.7727 C.3     1  UNL1        0.0991
     23 N          59.2691   89.6902    6.6019 N.3     1  UNL1       -0.2665
     24 C          59.0048   88.2145    6.5530 C.3     1  UNL1        0.0899
     25 C          58.8077   90.5724    5.4799 C.3     1  UNL1        0.0899
     26 N          63.9844   86.1479   14.0115 N.am    1  UNL1       -0.2518
     27 C          63.5466   86.8537   15.2605 C.2     1  UNL1        0.2516
     28 O          62.8757   86.0853   16.3603 O.2     1  UNL1       -0.2697
     29 H          64.4247   86.6522   13.2896 H       1  UNL1        0.1580
     30 C          63.7797   88.3280   15.4098 C.ar    1  UNL1        0.0537
     31 C          63.2557   89.0519   16.6145 C.ar    1  UNL1        0.0045
     32 C          63.4887   90.5261   16.7638 C.ar    1  UNL1        0.0001
     33 C          64.2458   91.2764   15.7083 C.ar    1  UNL1        0.0039
     34 C          64.7697   90.5525   14.5036 C.ar    1  UNL1        0.0716
     35 C          64.5367   89.0782   14.3544 C.ar    1  UNL1        0.0084
     36 C          65.5268   91.3028   13.4482 C.3     1  UNL1        0.4186
     37 F          66.2838   92.0531   12.3927 F       1  UNL1       -0.1659
     38 F          66.6151   91.5966   14.4377 F       1  UNL1       -0.1659
     39 F          64.4384   91.0090   12.4587 F       1  UNL1       -0.1659
@<TRIPOS>BOND
     1     1     2    1
     2     2     3   ar
     3     3     4   ar
     4     4     5   ar
     5     5     6   ar
     6     6     7   ar
     7     7     8   ar
     8     8    26    1
     9    26    27   am
    10    27    28    2
    11    27    30    1
    12    30    31   ar
    13    31    32   ar
    14    32    33   ar
    15    33    34   ar
    16    34    36    1
    17    36    37    1
    18    36    38    1
    19    36    39    1
    20    34    35   ar
    21     8     9   ar
    22    11     9    1
    23    11    12    1
    24    12    13    1
    25    13    14    1
    26    14    15    1
    27    15    16    1
    28    16    17   am
    29    17    18    2
    30    17    20    1
    31    20    21    2
    32    21    22    1
    33    22    23    1
    34    23    24    1
    35    23    25    1
    36    16    19    1
    37     9    10   ar
    38    10     2   ar
    39    10     6   ar
    40    35    30   ar
    41    19    11    1
    42    26    29    1
@<TRIPOS>MOLECULE
*****
 39 42 0 0 0
SMALL
GASTEIGER

@<TRIPOS>ATOM
      1 C          62.2217   81.5523   10.5951 C.3     1  UNL1        0.0326
      2 C          62.5896   81.7018   12.0416 C.ar    1  UNL1       -0.0045
      3 C          62.6289   80.4967   12.9339 C.ar    1  UNL1       -0.0027
      4 C          62.9969   80.6462   14.3804 C.ar    1  UNL1        0.0013
      5 C          63.3255   82.0007   14.9346 C.ar    1  UNL1        0.0206
      6 C          63.2861   83.2058   14.0423 C.ar    1  UNL1        0.0996
      7 N          63.5586   84.6575   14.3036 N.ar    1  UNL1       -0.2135
      8 C          63.3591   85.4053   13.0187 C.ar    1  UNL1        0.2039
      9 N          62.9633   84.4157   11.9632 N.ar    1  UNL1       -0.2999
     10 C          62.9182   83.0563   12.5958 C.ar    1  UNL1        0.0758
     11 C          62.6650   84.7302   10.5272 C.3     1  UNL1        0.1078
     12 C          63.5474   84.0587    9.5169 C.3     1  UNL1        0.0245
     13 C          63.5065   84.1657    8.0214 C.3     1  UNL1        0.0037
     14 C          62.5731   84.9707    7.1665 C.3     1  UNL1        0.0216
     15 C          61.4500   85.8674    7.5962 C.3     1  UNL1        0.0938
     16 N          60.9830   86.1806    8.9868 N.am    1  UNL1       -0.2742
     17 C          59.8216   87.1248    9.0862 C.2     1  UNL1        0.2489
     18 O          59.2764   87.5042   10.4311 O.2     1  UNL1       -0.2699
     19 C          61.5237   85.6745   10.2912 C.3     1  UNL1        0.1162
     20 C          59.2056   87.6896    7.8407 C.2     1  UNL1        0.0548
     21 C          59.6202   89.0438    7.3464 C.2     1  UNL1       -0.0041
     22 C          59.0043   89.6087    6.1009 C.3     1  UNL1        0.0991
     23 N          59.6188   90.8045    5.4360 N.3     1  UNL1       -0.2665
     24 C          58.7652   91.9845    5.0771 C.3     1  UNL1        0.0899
     25 C          61.0872   90.8204    5.1300 C.3     1  UNL1        0.0899
     26 N          63.5261   86.8831   12.8235 N.am    1  UNL1       -0.2518
     27 C          64.0591   87.7316   13.9397 C.2     1  UNL1        0.2516
     28 O          64.4251   87.1022   15.2512 O.2     1  UNL1       -0.2697
     29 H          63.2859   87.2962   11.9627 H       1  UNL1        0.1580
     30 C          64.2261   89.2094   13.7445 C.ar    1  UNL1        0.0537
     31 C          64.7161   90.0646   14.8753 C.ar    1  UNL1        0.0045
     32 C          64.8831   91.5425   14.6801 C.ar    1  UNL1        0.0001
     33 C          64.5601   92.1651   13.3541 C.ar    1  UNL1        0.0039
     34 C          64.0701   91.3099   12.2235 C.ar    1  UNL1        0.0716
     35 C          63.9031   89.8320   12.4186 C.ar    1  UNL1        0.0084
     36 C          63.7471   91.9325   10.8976 C.3     1  UNL1        0.4186
     37 F          63.4242   92.5552    9.5716 F       1  UNL1       -0.1659
     38 F          62.5098   91.0899   10.8033 F       1  UNL1       -0.1659
     39 F          64.9845   92.7751   10.9919 F       1  UNL1       -0.1659
@<TRIPOS>BOND
     1     1     2    1
     2     2     3   ar
     3     3     4   ar
     4     4     5   ar
     5     5     6   ar
     6     6     7   ar
     7     7     8   ar
     8     8    26    1
     9    26    27   am
    10    27    28    2
    11    27    30    1
    12    30    31   ar
    13    31    32   ar
    14    32    33   ar
    15    33    34   ar
    16    34    36    1
    17    36    37    1
    18    36    38    1
    19    36    39    1
    20    34    35   ar
    21     8     9   ar
    22    11     9    1
    23    11    12    1
    24    12    13    1
    25    13    14    1
    26    14    15    1
    27    15    16    1
    28    16    17   am
    29    17    18    2
    30    17    20    1
    31    20    21    2
    32    21    22    1
    33    22    23    1
    34    23    24    1
    35    23    25    1
    36    16    19    1
    37     9    10   ar
    38    10     2   ar
    39    10     6   ar
    40    35    30   ar
    41    19    11    1
    42    26    29    1
@<TRIPOS>MOLECULE
*****
 39 42 0 0 0
SMALL
GASTEIGER

@<TRIPOS>ATOM
      1 C          61.9208   96.6579   -2.4225 C.3     1  UNL1        0.0326
      2 C          62.9976   96.2134   -1.4775 C.ar    1  UNL1       -0.0045
      3 C          64.4310   96.5518   -1.7612 C.ar    1  UNL1       -0.0027
      4 C          65.5078   96.1074   -0.8162 C.ar    1  UNL1        0.0013
      5 C          65.1511   95.3245    0.4125 C.ar    1  UNL1        0.0206
      6 C          63.7176   94.9860    0.6962 C.ar    1  UNL1        0.0996
      7 N          63.0673   94.2329    1.8187 N.ar    1  UNL1       -0.2135
      8 C          61.5886   94.2120    1.5674 C.ar    1  UNL1        0.2039
      9 N          61.3251   94.9521    0.2896 N.ar    1  UNL1       -0.2999
     10 C          62.6408   95.4305   -0.2488 C.ar    1  UNL1        0.0758
     11 C          59.9816   95.1748   -0.3393 C.3     1  UNL1        0.1078
     12 C          59.2198   96.3675    0.1580 C.3     1  UNL1        0.0245
     13 C          57.8659   96.8552   -0.2649 C.3     1  UNL1        0.0037
     14 C          56.9393   96.2709   -1.2896 C.3     1  UNL1        0.0216
     15 C          57.1378   95.0544   -2.1444 C.3     1  UNL1        0.0938
     16 N          58.3119   94.1218   -2.1857 N.am    1  UNL1       -0.2742
     17 C          58.2066   92.9853   -3.1590 C.2     1  UNL1        0.2489
     18 O          59.3264   91.9946   -3.2794 O.2     1  UNL1       -0.2699
     19 C          59.5775   94.1754   -1.3823 C.3     1  UNL1        0.1162
     20 C          56.9813   92.8396   -4.0119 C.2     1  UNL1        0.0548
     21 C          56.5018   91.4748   -4.4088 C.2     1  UNL1       -0.0041
     22 C          55.2765   91.3289   -5.2616 C.3     1  UNL1        0.0991
     23 N          55.4065   90.9085   -6.6956 N.3     1  UNL1       -0.2665
     24 C          56.6089   91.3205   -7.4920 C.3     1  UNL1        0.0899
     25 C          54.3339   90.0761   -7.3332 C.3     1  UNL1        0.0899
     26 N          60.5550   93.5645    2.4406 N.am    1  UNL1       -0.2518
     27 C          60.9389   92.4272    3.3401 C.2     1  UNL1        0.2516
     28 O          62.3564   91.9373    3.3665 O.2     1  UNL1       -0.2697
     29 H          59.6247   93.8861    2.4234 H       1  UNL1        0.1580
     30 C          59.9053   91.7798    4.2134 C.ar    1  UNL1        0.0537
     31 C          58.4592   92.1497    4.0642 C.ar    1  UNL1        0.0045
     32 C          57.4256   91.5022    4.9374 C.ar    1  UNL1        0.0001
     33 C          57.8381   90.4850    5.9598 C.ar    1  UNL1        0.0039
     34 C          59.2841   90.1152    6.1089 C.ar    1  UNL1        0.0716
     35 C          60.3177   90.7626    5.2357 C.ar    1  UNL1        0.0084
     36 C          59.6965   89.0980    7.1312 C.3     1  UNL1        0.4186
     37 F          60.1089   88.0807    8.1536 F       1  UNL1       -0.1659
     38 F          58.8130   88.0794    6.4740 F       1  UNL1       -0.1659
     39 F          60.5799   90.1166    7.7883 F       1  UNL1       -0.1659
@<TRIPOS>BOND
     1     1     2    1
     2     2     3   ar
     3     3     4   ar
     4     4     5   ar
     5     5     6   ar
     6     6     7   ar
     7     7     8   ar
     8     8    26    1
     9    26    27   am
    10    27    28    2
    11    27    30    1
    12    30    31   ar
    13    31    32   ar
    14    32    33   ar
    15    33    34   ar
    16    34    36    1
    17    36    37    1
    18    36    38    1
    19    36    39    1
    20    34    35   ar
    21     8     9   ar
    22    11     9    1
    23    11    12    1
    24    12    13    1
    25    13    14    1
    26    14    15    1
    27    15    16    1
    28    16    17   am
    29    17    18    2
    30    17    20    1
    31    20    21    2
    32    21    22    1
    33    22    23    1
    34    23    24    1
    35    23    25    1
    36    16    19    1
    37     9    10   ar
    38    10     2   ar
    39    10     6   ar
    40    35    30   ar
    41    19    11    1
    42    26    29    1
