@<TRIPOS>MOLECULE
*****
 25 27 0 0 0
SMALL
GASTEIGER

@<TRIPOS>ATOM
      1 C          62.1663   86.6672   10.9752 C.ar    1  UNL1        0.2119
      2 C          62.8135   86.0854   12.1970 C.ar    1  UNL1        0.1821
      3 O          63.5061   86.9836   13.1786 O.2     1  UNL1       -0.4500
      4 C          63.5514   88.4636   12.9385 C.ar    1  UNL1        0.1545
      5 C          64.2439   89.3617   13.9202 C.ar    1  UNL1        0.0744
      6 C          64.2892   90.8417   13.6801 C.ar    1  UNL1        0.1397
      7 O          64.9818   91.7399   14.6617 O.3     1  UNL1       -0.5053
      8 C          63.6420   91.4235   12.4584 C.ar    1  UNL1        0.0735
      9 C          62.9494   90.5253   11.4767 C.ar    1  UNL1        0.1428
     10 O          62.3022   91.1071   10.2550 O.3     1  UNL1       -0.5052
     11 C          62.9041   89.0454   11.7168 C.ar    1  UNL1        0.1104
     12 C          62.2116   88.1471   10.7352 C.ar    1  UNL1        0.2381
     13 O          61.5643   88.7289    9.5134 O.2     1  UNL1       -0.2830
     14 H          65.3861   91.3765   15.4249 H       1  UNL1        0.2922
     15 H          62.3305   92.0316   10.1050 H       1  UNL1        0.2922
     16 C          62.7682   84.6054   12.4370 C.ar    1  UNL1        0.0379
     17 C          63.1319   83.6553   11.3348 C.ar    1  UNL1        0.0062
     18 C          63.0866   82.1754   11.5749 C.ar    1  UNL1        0.0367
     19 C          62.6775   81.6455   12.9172 C.ar    1  UNL1        0.1337
     20 O          62.6322   80.1655   13.1573 O.3     1  UNL1       -0.5055
     21 C          62.3138   82.5956   14.0195 C.ar    1  UNL1        0.0367
     22 C          62.3592   84.0755   13.7794 C.ar    1  UNL1        0.0062
     23 H          62.8594   79.5720   12.4687 H       1  UNL1        0.2922
     24 C          61.9453   85.7076    8.5710 C.3     1  UNL1        0.2528
     25 O          61.4737   85.7689    9.9936 O.3     1  UNL1       -0.4653
@<TRIPOS>BOND
     1    24    25    1
     2    25     1    1
     3     1     2   ar
     4     2    16    1
     5    16    17   ar
     6    17    18   ar
     7    18    19   ar
     8    19    20    1
     9    19    21   ar
    10    21    22   ar
    11     2     3   ar
    12     3     4   ar
    13     4     5   ar
    14     5     6   ar
    15     6     7    1
    16     6     8   ar
    17     8     9   ar
    18     9    10    1
    19     9    11   ar
    20    11    12   ar
    21    12    13    2
    22    12     1   ar
    23    22    16   ar
    24    11     4   ar
    25    20    23    1
    26     7    14    1
    27    10    15    1
@<TRIPOS>MOLECULE
*****
 25 27 0 0 0
SMALL
GASTEIGER

@<TRIPOS>ATOM
      1 C          63.7043   86.7929   13.4425 C.ar    1  UNL1        0.2119
      2 C          63.0163   85.7346   12.6321 C.ar    1  UNL1        0.1821
      3 O          62.1958   86.1200   11.4371 O.2     1  UNL1       -0.4500
      4 C          62.0633   87.5638   11.0523 C.ar    1  UNL1        0.1545
      5 C          61.2428   87.9491    9.8572 C.ar    1  UNL1        0.0744
      6 C          61.1103   89.3929    9.4724 C.ar    1  UNL1        0.1397
      7 O          60.2898   89.7783    8.2773 O.3     1  UNL1       -0.5053
      8 C          61.7983   90.4512   10.2828 C.ar    1  UNL1        0.0735
      9 C          62.6187   90.0658   11.4778 C.ar    1  UNL1        0.1428
     10 O          63.3067   91.1241   12.2882 O.3     1  UNL1       -0.5052
     11 C          62.7512   88.6221   11.8626 C.ar    1  UNL1        0.1104
     12 C          63.5718   88.2366   13.0577 C.ar    1  UNL1        0.2381
     13 O          64.2597   89.2950   13.8681 O.2     1  UNL1       -0.2830
     14 H          59.8600   89.1172    7.7711 H       1  UNL1        0.2922
     15 H          63.2239   92.0260   12.0478 H       1  UNL1        0.2922
     16 C          63.1488   84.2908   13.0169 C.ar    1  UNL1        0.0379
     17 C          62.2865   83.7223   14.1046 C.ar    1  UNL1        0.0062
     18 C          62.4191   82.2786   14.4894 C.ar    1  UNL1        0.0367
     19 C          63.4140   81.4034   13.7864 C.ar    1  UNL1        0.1337
     20 O          63.5465   79.9596   14.1712 O.3     1  UNL1       -0.5055
     21 C          64.2763   81.9719   12.6987 C.ar    1  UNL1        0.0367
     22 C          64.1437   83.4156   12.3140 C.ar    1  UNL1        0.0062
     23 H          63.0078   79.6045   14.8507 H       1  UNL1        0.2922
     24 C          63.8895   86.3452   15.9950 C.3     1  UNL1        0.2528
     25 O          64.5248   86.4075   14.6376 O.3     1  UNL1       -0.4653
@<TRIPOS>BOND
     1    24    25    1
     2    25     1    1
     3     1     2   ar
     4     2    16    1
     5    16    17   ar
     6    17    18   ar
     7    18    19   ar
     8    19    20    1
     9    19    21   ar
    10    21    22   ar
    11     2     3   ar
    12     3     4   ar
    13     4     5   ar
    14     5     6   ar
    15     6     7    1
    16     6     8   ar
    17     8     9   ar
    18     9    10    1
    19     9    11   ar
    20    11    12   ar
    21    12    13    2
    22    12     1   ar
    23    22    16   ar
    24    11     4   ar
    25    20    23    1
    26     7    14    1
    27    10    15    1
@<TRIPOS>MOLECULE
*****
 25 27 0 0 0
SMALL
GASTEIGER

@<TRIPOS>ATOM
      1 C          62.4301   89.9350   12.1729 C.ar    1  UNL1        0.2119
      2 C          62.5756   90.0028   10.6815 C.ar    1  UNL1        0.1821
      3 O          63.6208   90.8875   10.0694 O.2     1  UNL1       -0.4500
      4 C          64.5206   91.7045   10.9487 C.ar    1  UNL1        0.1545
      5 C          65.5658   92.5892   10.3365 C.ar    1  UNL1        0.0744
      6 C          66.4655   93.4061   11.2158 C.ar    1  UNL1        0.1397
      7 O          67.5108   94.2909   10.6036 O.3     1  UNL1       -0.5053
      8 C          66.3200   93.3384   12.7071 C.ar    1  UNL1        0.0735
      9 C          65.2747   92.4537   13.3193 C.ar    1  UNL1        0.1428
     10 O          65.1292   92.3859   14.8107 O.3     1  UNL1       -0.5052
     11 C          64.3751   91.6367   12.4400 C.ar    1  UNL1        0.1104
     12 C          63.3298   90.7520   13.0522 C.ar    1  UNL1        0.2381
     13 O          63.1842   90.6842   14.5435 O.2     1  UNL1       -0.2830
     14 H          67.6017   94.3332    9.6720 H       1  UNL1        0.2922
     15 H          65.6912   92.8963   15.3599 H       1  UNL1        0.2922
     16 C          61.6759   89.1857    9.8023 C.ar    1  UNL1        0.0379
     17 C          60.5509   89.8453    9.0611 C.ar    1  UNL1        0.0062
     18 C          59.6512   89.0283    8.1819 C.ar    1  UNL1        0.0367
     19 C          59.8765   87.5517    8.0439 C.ar    1  UNL1        0.1337
     20 O          58.9768   86.7347    7.1646 O.3     1  UNL1       -0.5055
     21 C          61.0015   86.8922    8.7850 C.ar    1  UNL1        0.0367
     22 C          61.9012   87.7092    9.6642 C.ar    1  UNL1        0.0062
     23 H          58.2740   87.1467    6.7017 H       1  UNL1        0.2922
     24 C          59.9367   89.4326   12.7027 C.3     1  UNL1        0.2528
     25 O          61.3848   89.0502   12.7850 O.3     1  UNL1       -0.4653
@<TRIPOS>BOND
     1    24    25    1
     2    25     1    1
     3     1     2   ar
     4     2    16    1
     5    16    17   ar
     6    17    18   ar
     7    18    19   ar
     8    19    20    1
     9    19    21   ar
    10    21    22   ar
    11     2     3   ar
    12     3     4   ar
    13     4     5   ar
    14     5     6   ar
    15     6     7    1
    16     6     8   ar
    17     8     9   ar
    18     9    10    1
    19     9    11   ar
    20    11    12   ar
    21    12    13    2
    22    12     1   ar
    23    22    16   ar
    24    11     4   ar
    25    20    23    1
    26     7    14    1
    27    10    15    1
@<TRIPOS>MOLECULE
*****
 25 27 0 0 0
SMALL
GASTEIGER

@<TRIPOS>ATOM
      1 C          63.7997   86.1335   13.9636 C.ar    1  UNL1        0.2119
      2 C          63.0329   85.4144   12.8936 C.ar    1  UNL1        0.1821
      3 O          62.4600   86.1801   11.7380 O.2     1  UNL1       -0.4500
      4 C          62.6540   87.6651   11.6523 C.ar    1  UNL1        0.1545
      5 C          62.0812   88.4308   10.4967 C.ar    1  UNL1        0.0744
      6 C          62.2752   89.9157   10.4111 C.ar    1  UNL1        0.1397
      7 O          61.7024   90.6816    9.2554 O.3     1  UNL1       -0.5053
      8 C          63.0420   90.6349   11.4810 C.ar    1  UNL1        0.0735
      9 C          63.6149   89.8691   12.6366 C.ar    1  UNL1        0.1428
     10 O          64.3817   90.5883   13.7065 O.3     1  UNL1       -0.5052
     11 C          63.4209   88.3842   12.7223 C.ar    1  UNL1        0.1104
     12 C          63.9937   87.6184   13.8779 C.ar    1  UNL1        0.2381
     13 O          64.7605   88.3376   14.9479 O.2     1  UNL1       -0.2830
     14 H          61.2234   90.2323    8.5870 H       1  UNL1        0.2922
     15 H          64.5029   91.5159   13.6530 H       1  UNL1        0.2922
     16 C          62.8389   83.9294   12.9793 C.ar    1  UNL1        0.0379
     17 C          63.2658   83.0503   11.8414 C.ar    1  UNL1        0.0062
     18 C          63.0718   81.5654   11.9271 C.ar    1  UNL1        0.0367
     19 C          62.4509   80.9596   13.1508 C.ar    1  UNL1        0.1337
     20 O          62.2569   79.4746   13.2365 O.3     1  UNL1       -0.5055
     21 C          62.0240   81.8386   14.2888 C.ar    1  UNL1        0.0367
     22 C          62.2180   83.3235   14.2030 C.ar    1  UNL1        0.0062
     23 H          62.5235   78.9255   12.5257 H       1  UNL1        0.2922
     24 C          63.7715   85.5116   16.4860 C.3     1  UNL1        0.2528
     25 O          64.3725   85.3677   15.1192 O.3     1  UNL1       -0.4653
@<TRIPOS>BOND
     1    24    25    1
     2    25     1    1
     3     1     2   ar
     4     2    16    1
     5    16    17   ar
     6    17    18   ar
     7    18    19   ar
     8    19    20    1
     9    19    21   ar
    10    21    22   ar
    11     2     3   ar
    12     3     4   ar
    13     4     5   ar
    14     5     6   ar
    15     6     7    1
    16     6     8   ar
    17     8     9   ar
    18     9    10    1
    19     9    11   ar
    20    11    12   ar
    21    12    13    2
    22    12     1   ar
    23    22    16   ar
    24    11     4   ar
    25    20    23    1
    26     7    14    1
    27    10    15    1
@<TRIPOS>MOLECULE
*****
 25 27 0 0 0
SMALL
GASTEIGER

@<TRIPOS>ATOM
      1 C          62.0525   86.2588    9.9563 C.ar    1  UNL1        0.2119
      2 C          61.6367   86.8161   11.2854 C.ar    1  UNL1        0.1821
      3 O          61.9961   86.0910   12.5483 O.2     1  UNL1       -0.4500
      4 C          62.7713   84.8085   12.4822 C.ar    1  UNL1        0.1545
      5 C          63.1307   84.0834   13.7451 C.ar    1  UNL1        0.0744
      6 C          63.9059   82.8010   13.6790 C.ar    1  UNL1        0.1397
      7 O          64.2653   82.0758   14.9419 O.3     1  UNL1       -0.5053
      8 C          64.3217   82.2436   12.3499 C.ar    1  UNL1        0.0735
      9 C          63.9623   82.9687   11.0869 C.ar    1  UNL1        0.1428
     10 O          64.3781   82.4114    9.7579 O.3     1  UNL1       -0.5052
     11 C          63.1871   84.2512   11.1531 C.ar    1  UNL1        0.1104
     12 C          62.8277   84.9763    9.8901 C.ar    1  UNL1        0.2381
     13 O          63.2435   84.4190    8.5610 O.2     1  UNL1       -0.2830
     14 H          64.0056   82.4240   15.7722 H       1  UNL1        0.2922
     15 H          64.8623   81.6103    9.7165 H       1  UNL1        0.2922
     16 C          60.8615   88.0986   11.3515 C.ar    1  UNL1        0.0379
     17 C          59.5115   88.1262   12.0048 C.ar    1  UNL1        0.0062
     18 C          58.7364   89.4086   12.0708 C.ar    1  UNL1        0.0367
     19 C          59.3112   90.6635   11.4836 C.ar    1  UNL1        0.1337
     20 O          58.5360   91.9460   11.5498 O.3     1  UNL1       -0.5055
     21 C          60.6612   90.6360   10.8304 C.ar    1  UNL1        0.0367
     22 C          61.4363   89.3535   10.7643 C.ar    1  UNL1        0.0062
     23 H          57.6927   91.9632   11.9578 H       1  UNL1        0.2922
     24 C          60.4323   86.6334    7.9601 C.3     1  UNL1        0.2528
     25 O          61.6931   86.9839    8.6933 O.3     1  UNL1       -0.4653
@<TRIPOS>BOND
     1    24    25    1
     2    25     1    1
     3     1     2   ar
     4     2    16    1
     5    16    17   ar
     6    17    18   ar
     7    18    19   ar
     8    19    20    1
     9    19    21   ar
    10    21    22   ar
    11     2     3   ar
    12     3     4   ar
    13     4     5   ar
    14     5     6   ar
    15     6     7    1
    16     6     8   ar
    17     8     9   ar
    18     9    10    1
    19     9    11   ar
    20    11    12   ar
    21    12    13    2
    22    12     1   ar
    23    22    16   ar
    24    11     4   ar
    25    20    23    1
    26     7    14    1
    27    10    15    1
@<TRIPOS>MOLECULE
*****
 25 27 0 0 0
SMALL
GASTEIGER

@<TRIPOS>ATOM
      1 C          60.8794   88.6661   11.1082 C.ar    1  UNL1        0.2119
      2 C          62.3631   88.4534   11.1683 C.ar    1  UNL1        0.1821
      3 O          63.0251   87.5104   10.2080 O.2     1  UNL1       -0.4500
      4 C          62.2035   86.7799    9.1874 C.ar    1  UNL1        0.1545
      5 C          62.8655   85.8369    8.2270 C.ar    1  UNL1        0.0744
      6 C          62.0440   85.1065    7.2066 C.ar    1  UNL1        0.1397
      7 O          62.7060   84.1634    6.2461 O.3     1  UNL1       -0.5053
      8 C          60.5603   85.3191    7.1464 C.ar    1  UNL1        0.0735
      9 C          59.8983   86.2621    8.1068 C.ar    1  UNL1        0.1428
     10 O          58.4146   86.4748    8.0467 O.3     1  UNL1       -0.5052
     11 C          60.7199   86.9925    9.1273 C.ar    1  UNL1        0.1104
     12 C          60.0578   87.9356   10.0877 C.ar    1  UNL1        0.2381
     13 O          58.5742   88.1483   10.0276 O.2     1  UNL1       -0.2830
     14 H          63.6328   84.0306    6.2836 H       1  UNL1        0.2922
     15 H          57.9014   86.0185    7.4092 H       1  UNL1        0.2922
     16 C          63.1847   89.1839   12.1889 C.ar    1  UNL1        0.0379
     17 C          63.5123   90.6340   11.9896 C.ar    1  UNL1        0.0062
     18 C          64.3338   91.3644   13.0101 C.ar    1  UNL1        0.0367
     19 C          64.8278   90.6447   14.2299 C.ar    1  UNL1        0.1337
     20 O          65.6494   91.3752   15.2505 O.3     1  UNL1       -0.5055
     21 C          64.5002   89.1946   14.4292 C.ar    1  UNL1        0.0367
     22 C          63.6786   88.4642   13.4087 C.ar    1  UNL1        0.0062
     23 H          65.8540   92.2810   15.1260 H       1  UNL1        0.2922
     24 C          59.3742   90.7368   11.5515 C.3     1  UNL1        0.2528
     25 O          60.2174   89.6091   12.0686 O.3     1  UNL1       -0.4653
@<TRIPOS>BOND
     1    24    25    1
     2    25     1    1
     3     1     2   ar
     4     2    16    1
     5    16    17   ar
     6    17    18   ar
     7    18    19   ar
     8    19    20    1
     9    19    21   ar
    10    21    22   ar
    11     2     3   ar
    12     3     4   ar
    13     4     5   ar
    14     5     6   ar
    15     6     7    1
    16     6     8   ar
    17     8     9   ar
    18     9    10    1
    19     9    11   ar
    20    11    12   ar
    21    12    13    2
    22    12     1   ar
    23    22    16   ar
    24    11     4   ar
    25    20    23    1
    26     7    14    1
    27    10    15    1
@<TRIPOS>MOLECULE
*****
 25 27 0 0 0
SMALL
GASTEIGER

@<TRIPOS>ATOM
      1 C          45.6202   76.2307   20.2412 C.ar    1  UNL1        0.2119
      2 C          45.8553   77.0242   18.9902 C.ar    1  UNL1        0.1821
      3 O          45.7055   76.3707   17.6483 O.2     1  UNL1       -0.4500
      4 C          45.3207   74.9237   17.5575 C.ar    1  UNL1        0.1545
      5 C          45.1710   74.2703   16.2157 C.ar    1  UNL1        0.0744
      6 C          44.7862   72.8234   16.1249 C.ar    1  UNL1        0.1397
      7 O          44.6364   72.1699   14.7830 O.3     1  UNL1       -0.5053
      8 C          44.5511   72.0299   17.3760 C.ar    1  UNL1        0.0735
      9 C          44.7009   72.6833   18.7178 C.ar    1  UNL1        0.1428
     10 O          44.4659   71.8898   19.9688 O.3     1  UNL1       -0.5052
     11 C          45.0857   74.1302   18.8086 C.ar    1  UNL1        0.1104
     12 C          45.2355   74.7837   20.1504 C.ar    1  UNL1        0.2381
     13 O          45.0004   73.9902   21.4015 O.2     1  UNL1       -0.2830
     14 H          44.7832   72.6655   14.0015 H       1  UNL1        0.2922
     15 H          44.2255   70.9859   19.9121 H       1  UNL1        0.2922
     16 C          46.2401   78.4712   19.0810 C.ar    1  UNL1        0.0379
     17 C          47.6473   78.8934   18.7789 C.ar    1  UNL1        0.0062
     18 C          48.0321   80.3403   18.8698 C.ar    1  UNL1        0.0367
     19 C          47.0095   81.3650   19.2627 C.ar    1  UNL1        0.1337
     20 O          47.3944   82.8121   19.3535 O.3     1  UNL1       -0.5055
     21 C          45.6023   80.9428   19.5647 C.ar    1  UNL1        0.0367
     22 C          45.2175   79.4959   19.4739 C.ar    1  UNL1        0.0062
     23 H          48.2734   83.0758   19.1648 H       1  UNL1        0.2922
     24 C          44.5525   77.2854   22.3620 C.3     1  UNL1        0.2528
     25 O          45.7700   76.8842   21.5831 O.3     1  UNL1       -0.4653
@<TRIPOS>BOND
     1    24    25    1
     2    25     1    1
     3     1     2   ar
     4     2    16    1
     5    16    17   ar
     6    17    18   ar
     7    18    19   ar
     8    19    20    1
     9    19    21   ar
    10    21    22   ar
    11     2     3   ar
    12     3     4   ar
    13     4     5   ar
    14     5     6   ar
    15     6     7    1
    16     6     8   ar
    17     8     9   ar
    18     9    10    1
    19     9    11   ar
    20    11    12   ar
    21    12    13    2
    22    12     1   ar
    23    22    16   ar
    24    11     4   ar
    25    20    23    1
    26     7    14    1
    27    10    15    1
@<TRIPOS>MOLECULE
*****
 25 27 0 0 0
SMALL
GASTEIGER

@<TRIPOS>ATOM
      1 C          60.2225   94.7405   -1.9872 C.ar    1  UNL1        0.2119
      2 C          59.2265   94.3080   -0.9524 C.ar    1  UNL1        0.1821
      3 O          59.6980   93.6896    0.3302 O.2     1  UNL1       -0.4500
      4 C          61.1657   93.5037    0.5781 C.ar    1  UNL1        0.1545
      5 C          61.6373   92.8853    1.8607 C.ar    1  UNL1        0.0744
      6 C          63.1049   92.6994    2.1086 C.ar    1  UNL1        0.1397
      7 O          63.5766   92.0810    3.3912 O.3     1  UNL1       -0.5053
      8 C          64.1010   93.1318    1.0737 C.ar    1  UNL1        0.0735
      9 C          63.6294   93.7502   -0.2089 C.ar    1  UNL1        0.1428
     10 O          64.6255   94.1827   -1.2437 O.3     1  UNL1       -0.5052
     11 C          62.1618   93.9361   -0.4567 C.ar    1  UNL1        0.1104
     12 C          61.6902   94.5545   -1.7394 C.ar    1  UNL1        0.2381
     13 O          62.6862   94.9870   -2.7742 O.2     1  UNL1       -0.2830
     14 H          62.9544   91.8108    4.0377 H       1  UNL1        0.2922
     15 H          65.5423   94.0665   -1.0889 H       1  UNL1        0.2922
     16 C          57.7588   94.4939   -1.2002 C.ar    1  UNL1        0.0379
     17 C          56.9081   93.3193   -1.5829 C.ar    1  UNL1        0.0062
     18 C          55.4404   93.5053   -1.8308 C.ar    1  UNL1        0.0367
     19 C          54.8235   94.8659   -1.6959 C.ar    1  UNL1        0.1337
     20 O          53.3558   95.0519   -1.9438 O.3     1  UNL1       -0.5055
     21 C          55.6743   96.0405   -1.3132 C.ar    1  UNL1        0.0367
     22 C          57.1419   95.8545   -1.0654 C.ar    1  UNL1        0.0062
     23 H          52.8244   94.3181   -2.1829 H       1  UNL1        0.2922
     24 C          59.5071   94.4968   -4.4730 C.3     1  UNL1        0.2528
     25 O          59.7509   95.3589   -3.2699 O.3     1  UNL1       -0.4653
@<TRIPOS>BOND
     1    24    25    1
     2    25     1    1
     3     1     2   ar
     4     2    16    1
     5    16    17   ar
     6    17    18   ar
     7    18    19   ar
     8    19    20    1
     9    19    21   ar
    10    21    22   ar
    11     2     3   ar
    12     3     4   ar
    13     4     5   ar
    14     5     6   ar
    15     6     7    1
    16     6     8   ar
    17     8     9   ar
    18     9    10    1
    19     9    11   ar
    20    11    12   ar
    21    12    13    2
    22    12     1   ar
    23    22    16   ar
    24    11     4   ar
    25    20    23    1
    26     7    14    1
    27    10    15    1
@<TRIPOS>MOLECULE
*****
 25 27 0 0 0
SMALL
GASTEIGER

@<TRIPOS>ATOM
      1 C          45.7875   78.4078   20.0316 C.ar    1  UNL1        0.2119
      2 C          45.9613   77.5038   18.8473 C.ar    1  UNL1        0.1821
      3 O          45.7674   78.0396   17.4598 O.2     1  UNL1       -0.4500
      4 C          45.3995   79.4796   17.2565 C.ar    1  UNL1        0.1545
      5 C          45.2056   80.0154   15.8690 C.ar    1  UNL1        0.0744
      6 C          44.8377   81.4553   15.6658 C.ar    1  UNL1        0.1397
      7 O          44.6437   81.9913   14.2782 O.3     1  UNL1       -0.5053
      8 C          44.6638   82.3594   16.8500 C.ar    1  UNL1        0.0735
      9 C          44.8578   81.8235   18.2375 C.ar    1  UNL1        0.1428
     10 O          44.6839   82.7276   19.4218 O.3     1  UNL1       -0.5052
     11 C          45.2256   80.3836   18.4408 C.ar    1  UNL1        0.1104
     12 C          45.4196   79.8477   19.8283 C.ar    1  UNL1        0.2381
     13 O          45.2457   80.7518   21.0126 O.2     1  UNL1       -0.2830
     14 H          44.7523   81.4265   13.5384 H       1  UNL1        0.2922
     15 H          44.4541   83.6271   19.2948 H       1  UNL1        0.2922
     16 C          46.3292   76.0638   19.0506 C.ar    1  UNL1        0.0379
     17 C          47.7676   75.6740   19.2204 C.ar    1  UNL1        0.0062
     18 C          48.1354   74.2341   19.4237 C.ar    1  UNL1        0.0367
     19 C          47.0648   73.1840   19.4572 C.ar    1  UNL1        0.1337
     20 O          47.4327   71.7441   19.6605 O.3     1  UNL1       -0.5055
     21 C          45.6264   73.5739   19.2874 C.ar    1  UNL1        0.0367
     22 C          45.2586   75.0138   19.0841 C.ar    1  UNL1        0.0062
     23 H          48.3312   71.5005   19.7665 H       1  UNL1        0.2922
     24 C          44.7938   77.4543   22.2346 C.3     1  UNL1        0.2528
     25 O          45.9814   77.8719   21.4191 O.3     1  UNL1       -0.4653
@<TRIPOS>BOND
     1    24    25    1
     2    25     1    1
     3     1     2   ar
     4     2    16    1
     5    16    17   ar
     6    17    18   ar
     7    18    19   ar
     8    19    20    1
     9    19    21   ar
    10    21    22   ar
    11     2     3   ar
    12     3     4   ar
    13     4     5   ar
    14     5     6   ar
    15     6     7    1
    16     6     8   ar
    17     8     9   ar
    18     9    10    1
    19     9    11   ar
    20    11    12   ar
    21    12    13    2
    22    12     1   ar
    23    22    16   ar
    24    11     4   ar
    25    20    23    1
    26     7    14    1
    27    10    15    1
