@<TRIPOS>MOLECULE
*****
 31 35 0 0 0
SMALL
GASTEIGER

@<TRIPOS>ATOM
      1 N          62.2214   88.8017   11.1150 N.pl3   1  UNL1       -0.2892
      2 C          62.5209   87.6025   10.2652 C.3     1  UNL1        0.1095
      3 C          61.6527   87.2846    9.0840 C.3     1  UNL1        0.0939
      4 N          60.4850   88.1659    8.7526 N.3     1  UNL1       -0.2695
      5 C          60.1855   89.3652    9.6024 C.3     1  UNL1        0.0939
      6 C          61.0537   89.6830   10.7836 C.3     1  UNL1        0.1095
      7 C          63.3413   91.5941    9.9975 C.3     1  UNL1        0.1306
      8 N          64.0345   91.5016   11.3245 N.ar    1  UNL1       -0.3217
      9 C          64.9888   92.5097   11.8928 C.ar    1  UNL1        0.0654
     10 C          65.5060   93.8134   11.3610 C.ar    1  UNL1        0.0380
     11 C          66.4734   94.6234   12.1721 C.ar    1  UNL1        0.1013
     12 N          66.9237   94.1297   13.5150 N.ar    1  UNL1       -0.2323
     13 C          66.4066   92.8260   14.0468 C.ar    1  UNL1        0.1412
     14 CL         66.8569   92.3323   15.3898 Cl      1  UNL1       -0.0612
     15 C          65.4391   92.0160   13.2357 C.ar    1  UNL1        0.0635
     16 C          64.7631   90.7028   13.4974 C.ar    1  UNL1        0.1052
     17 N          64.8258   89.7554   14.6586 N.ar    1  UNL1       -0.2223
     18 C          64.0204   88.4901   14.6386 C.ar    1  UNL1        0.2001
     19 N          63.1523   88.1722   13.4574 N.ar    1  UNL1       -0.2075
     20 C          63.0895   89.1196   12.2962 C.ar    1  UNL1        0.1509
     21 C          63.8949   90.3849   12.3162 C.ar    1  UNL1        0.1100
     22 C          59.6169   87.8480    7.5714 C.3     1  UNL1        0.0769
     23 C          58.5467   88.8095    7.1467 C.3     1  UNL1        0.0437
     24 C          58.8616   89.8939    6.1593 C.ar    1  UNL1       -0.0184
     25 C          57.7665   90.7798    5.6438 C.ar    1  UNL1       -0.0018
     26 C          58.0815   91.8643    4.6564 C.ar    1  UNL1        0.0316
     27 C          59.4914   92.0627    4.1846 C.ar    1  UNL1        0.1674
     28 F          59.8063   93.1471    3.1972 F       1  UNL1       -0.2018
     29 C          60.5865   91.1767    4.7001 C.ar    1  UNL1        0.1671
     30 F          61.9965   91.3751    4.2283 F       1  UNL1       -0.2018
     31 C          60.2716   90.0924    5.6875 C.ar    1  UNL1        0.0277
@<TRIPOS>BOND
     1     7     8    1
     2     8     9   ar
     3     9    10   ar
     4    10    11   ar
     5    11    12   ar
     6    12    13   ar
     7    13    14    1
     8    13    15   ar
     9    15    16   ar
    10    16    17   ar
    11    17    18   ar
    12    18    19   ar
    13    19    20   ar
    14    20     1    1
    15     1     2    1
    16     2     3    1
    17     3     4    1
    18     4    22    1
    19    22    23    1
    20    23    24    1
    21    24    25   ar
    22    25    26   ar
    23    26    27   ar
    24    27    28    1
    25    27    29   ar
    26    29    30    1
    27    29    31   ar
    28     4     5    1
    29     5     6    1
    30    20    21   ar
    31    21     8   ar
    32    15     9   ar
    33    21    16   ar
    34     6     1    1
    35    31    24   ar
@<TRIPOS>MOLECULE
*****
 31 35 0 0 0
SMALL
GASTEIGER

@<TRIPOS>ATOM
      1 N          61.9185   89.4881   11.8671 N.pl3   1  UNL1       -0.2892
      2 C          62.4897   88.8834   10.6190 C.3     1  UNL1        0.1095
      3 C          61.5771   88.2824    9.5912 C.3     1  UNL1        0.0939
      4 N          60.0934   88.2862    9.8117 N.3     1  UNL1       -0.2695
      5 C          59.5222   88.8909   11.0599 C.3     1  UNL1        0.0939
      6 C          60.4347   89.4919   12.0876 C.3     1  UNL1        0.1095
      7 C          63.2975   91.6305    9.9153 C.3     1  UNL1        0.1306
      8 N          63.9967   91.9116   11.2123 N.ar    1  UNL1       -0.3217
      9 C          65.0555   92.9503   11.4360 C.ar    1  UNL1        0.0654
     10 C          65.6935   93.9477   10.5152 C.ar    1  UNL1        0.0380
     11 C          66.7490   94.8790   11.0335 C.ar    1  UNL1        0.1013
     12 N          67.1665   94.8128   12.4727 N.ar    1  UNL1       -0.2323
     13 C          66.5285   93.8153   13.3936 C.ar    1  UNL1        0.1412
     14 CL         66.9460   93.7491   14.8328 Cl      1  UNL1       -0.0612
     15 C          65.4730   92.8841   12.8752 C.ar    1  UNL1        0.0635
     16 C          64.6722   91.8045   13.5410 C.ar    1  UNL1        0.1052
     17 N          64.6559   91.2911   14.9502 N.ar    1  UNL1       -0.2223
     18 C          63.7271   90.1767   15.3318 C.ar    1  UNL1        0.2001
     19 N          62.8147   89.5757   14.3041 N.ar    1  UNL1       -0.2075
     20 C          62.8309   90.0891   12.8948 C.ar    1  UNL1        0.1509
     21 C          63.7597   91.2035   12.5132 C.ar    1  UNL1        0.1100
     22 C          59.1810   87.6852    8.7840 C.3     1  UNL1        0.0769
     23 C          59.5946   86.4460    8.0467 C.3     1  UNL1        0.0437
     24 C          60.8553   85.7301    8.4313 C.ar    1  UNL1       -0.0184
     25 C          61.8204   85.2889    7.3713 C.ar    1  UNL1       -0.0018
     26 C          63.0812   84.5729    7.7560 C.ar    1  UNL1        0.0316
     27 C          63.3767   84.2981    9.2007 C.ar    1  UNL1        0.1674
     28 F          64.6374   83.5821    9.5853 F       1  UNL1       -0.2018
     29 C          62.4115   84.7393   10.2608 C.ar    1  UNL1        0.1671
     30 F          62.7070   84.4645   11.7055 F       1  UNL1       -0.2018
     31 C          61.1508   85.4552    9.8761 C.ar    1  UNL1        0.0277
@<TRIPOS>BOND
     1     7     8    1
     2     8     9   ar
     3     9    10   ar
     4    10    11   ar
     5    11    12   ar
     6    12    13   ar
     7    13    14    1
     8    13    15   ar
     9    15    16   ar
    10    16    17   ar
    11    17    18   ar
    12    18    19   ar
    13    19    20   ar
    14    20     1    1
    15     1     2    1
    16     2     3    1
    17     3     4    1
    18     4    22    1
    19    22    23    1
    20    23    24    1
    21    24    25   ar
    22    25    26   ar
    23    26    27   ar
    24    27    28    1
    25    27    29   ar
    26    29    30    1
    27    29    31   ar
    28     4     5    1
    29     5     6    1
    30    20    21   ar
    31    21     8   ar
    32    15     9   ar
    33    21    16   ar
    34     6     1    1
    35    31    24   ar
@<TRIPOS>MOLECULE
*****
 31 35 0 0 0
SMALL
GASTEIGER

@<TRIPOS>ATOM
      1 N          63.5162   88.9703   12.7849 N.pl3   1  UNL1       -0.2892
      2 C          64.1532   88.7067   14.1171 C.3     1  UNL1        0.1095
      3 C          64.7900   89.8307   14.8795 C.3     1  UNL1        0.0939
      4 N          64.7898   91.2183   14.3096 N.3     1  UNL1       -0.2695
      5 C          64.1529   91.4818   12.9774 C.3     1  UNL1        0.0939
      6 C          63.5161   90.3579   12.2151 C.3     1  UNL1        0.1095
      7 C          62.0315   90.8058   10.6108 C.3     1  UNL1        0.1306
      8 N          61.6194   89.4309   10.1752 N.ar    1  UNL1       -0.3217
      9 C          60.7360   89.1036    9.0079 C.ar    1  UNL1        0.0654
     10 C          60.0464   89.9708    7.9968 C.ar    1  UNL1        0.0380
     11 C          59.2099   89.3468    6.9195 C.ar    1  UNL1        0.1013
     12 N          59.0629   87.8555    6.8532 N.ar    1  UNL1       -0.2323
     13 C          59.7525   86.9882    7.8643 C.ar    1  UNL1        0.1412
     14 CL         59.6056   85.4969    7.7981 Cl      1  UNL1       -0.0612
     15 C          60.5891   87.6123    8.9417 C.ar    1  UNL1        0.0635
     16 C          61.3816   87.0179   10.0680 C.ar    1  UNL1        0.1052
     17 N          61.6058   85.5985   10.4979 N.ar    1  UNL1       -0.2223
     18 C          62.4667   85.3029   11.6901 C.ar    1  UNL1        0.2001
     19 N          63.1035   86.4269   12.4525 N.ar    1  UNL1       -0.2075
     20 C          62.8794   87.8463   12.0226 C.ar    1  UNL1        0.1509
     21 C          62.0185   88.1419   10.8303 C.ar    1  UNL1        0.1100
     22 C          65.4267   92.3422   15.0720 C.3     1  UNL1        0.0769
     23 C          66.6466   93.0227   14.5254 C.3     1  UNL1        0.0437
     24 C          66.7663   93.2780   13.0521 C.ar    1  UNL1       -0.0184
     25 C          66.2474   94.5584   12.4682 C.ar    1  UNL1       -0.0018
     26 C          66.3672   94.8136   10.9948 C.ar    1  UNL1        0.0316
     27 C          67.0059   93.7883   10.1055 C.ar    1  UNL1        0.1674
     28 F          67.1256   94.0435    8.6323 F       1  UNL1       -0.2018
     29 C          67.5248   92.5077   10.6895 C.ar    1  UNL1        0.1671
     30 F          68.1634   91.4824    9.8003 F       1  UNL1       -0.2018
     31 C          67.4050   92.2526   12.1627 C.ar    1  UNL1        0.0277
@<TRIPOS>BOND
     1     7     8    1
     2     8     9   ar
     3     9    10   ar
     4    10    11   ar
     5    11    12   ar
     6    12    13   ar
     7    13    14    1
     8    13    15   ar
     9    15    16   ar
    10    16    17   ar
    11    17    18   ar
    12    18    19   ar
    13    19    20   ar
    14    20     1    1
    15     1     2    1
    16     2     3    1
    17     3     4    1
    18     4    22    1
    19    22    23    1
    20    23    24    1
    21    24    25   ar
    22    25    26   ar
    23    26    27   ar
    24    27    28    1
    25    27    29   ar
    26    29    30    1
    27    29    31   ar
    28     4     5    1
    29     5     6    1
    30    20    21   ar
    31    21     8   ar
    32    15     9   ar
    33    21    16   ar
    34     6     1    1
    35    31    24   ar
@<TRIPOS>MOLECULE
*****
 31 35 0 0 0
SMALL
GASTEIGER

@<TRIPOS>ATOM
      1 N          63.5003   88.8397   12.6555 N.pl3   1  UNL1       -0.2892
      2 C          64.2225   88.7834   13.9688 C.3     1  UNL1        0.1095
      3 C          64.7634   90.0412   14.5818 C.3     1  UNL1        0.0939
      4 N          64.5819   91.3551   13.8813 N.3     1  UNL1       -0.2695
      5 C          63.8596   91.4113   12.5678 C.3     1  UNL1        0.0939
      6 C          63.3188   90.1537   11.9550 C.3     1  UNL1        0.1095
      7 C          64.5896   86.8397   14.9169 C.3     1  UNL1        0.1306
      8 N          63.8980   85.8904   13.9839 N.ar    1  UNL1       -0.3217
      9 C          63.7975   84.4035   14.1538 C.ar    1  UNL1        0.0654
     10 C          64.3112   83.4777   15.2163 C.ar    1  UNL1        0.0380
     11 C          64.0504   82.0039   15.1171 C.ar    1  UNL1        0.1013
     12 N          63.2758   81.4559   13.9553 N.ar    1  UNL1       -0.2323
     13 C          62.7621   82.3817   12.8928 C.ar    1  UNL1        0.1412
     14 CL         61.9875   81.8337   11.7310 Cl      1  UNL1       -0.0612
     15 C          63.0230   83.8555   12.9920 C.ar    1  UNL1        0.0635
     16 C          62.6448   85.0037   12.1041 C.ar    1  UNL1        0.1052
     17 N          61.8778   85.0666   10.8166 N.ar    1  UNL1       -0.2223
     18 C          61.6517   86.3872   10.1420 C.ar    1  UNL1        0.2001
     19 N          62.1925   87.6449   10.7550 N.ar    1  UNL1       -0.2075
     20 C          62.9595   87.5820   12.0425 C.ar    1  UNL1        0.1509
     21 C          63.1856   86.2614   12.7171 C.ar    1  UNL1        0.1100
     22 C          65.1227   92.6128   14.4942 C.3     1  UNL1        0.0769
     23 C          66.4326   93.1729   14.0246 C.3     1  UNL1        0.0437
     24 C          66.6557   93.4360   12.5648 C.ar    1  UNL1       -0.0184
     25 C          66.2865   94.7658   11.9775 C.ar    1  UNL1       -0.0018
     26 C          66.5096   95.0288   10.5176 C.ar    1  UNL1        0.0316
     27 C          67.1018   93.9620    9.6452 C.ar    1  UNL1        0.1674
     28 F          67.3249   94.2250    8.1854 F       1  UNL1       -0.2018
     29 C          67.4710   92.6320   10.2326 C.ar    1  UNL1        0.1671
     30 F          68.0632   91.5652    9.3603 F       1  UNL1       -0.2018
     31 C          67.2479   92.3691   11.6924 C.ar    1  UNL1        0.0277
@<TRIPOS>BOND
     1     7     8    1
     2     8     9   ar
     3     9    10   ar
     4    10    11   ar
     5    11    12   ar
     6    12    13   ar
     7    13    14    1
     8    13    15   ar
     9    15    16   ar
    10    16    17   ar
    11    17    18   ar
    12    18    19   ar
    13    19    20   ar
    14    20     1    1
    15     1     2    1
    16     2     3    1
    17     3     4    1
    18     4    22    1
    19    22    23    1
    20    23    24    1
    21    24    25   ar
    22    25    26   ar
    23    26    27   ar
    24    27    28    1
    25    27    29   ar
    26    29    30    1
    27    29    31   ar
    28     4     5    1
    29     5     6    1
    30    20    21   ar
    31    21     8   ar
    32    15     9   ar
    33    21    16   ar
    34     6     1    1
    35    31    24   ar
@<TRIPOS>MOLECULE
*****
 31 35 0 0 0
SMALL
GASTEIGER

@<TRIPOS>ATOM
      1 N          61.9951   89.2779   12.3067 N.pl3   1  UNL1       -0.2892
      2 C          62.3971   87.9200   11.8126 C.3     1  UNL1        0.1095
      3 C          61.4647   87.1332   10.9398 C.3     1  UNL1        0.0939
      4 N          60.1305   87.7044   10.5611 N.3     1  UNL1       -0.2695
      5 C          59.7285   89.0624   11.0552 C.3     1  UNL1        0.0939
      6 C          60.6608   89.8492   11.9280 C.3     1  UNL1        0.1095
      7 C          63.2070   91.1175    9.9726 C.3     1  UNL1        0.1306
      8 N          63.9500   91.6259   11.1724 N.ar    1  UNL1       -0.3217
      9 C          64.9774   92.7188   11.1754 C.ar    1  UNL1        0.0654
     10 C          65.5370   93.5732   10.0768 C.ar    1  UNL1        0.0380
     11 C          66.5777   94.6078   10.3877 C.ar    1  UNL1        0.1013
     12 N          67.0587   94.7879   11.7970 N.ar    1  UNL1       -0.2323
     13 C          66.4990   93.9335   12.8955 C.ar    1  UNL1        0.1412
     14 CL         66.9801   94.1137   14.3048 Cl      1  UNL1       -0.0612
     15 C          65.4584   92.8990   12.5847 C.ar    1  UNL1        0.0635
     16 C          64.7283   91.9174   13.4527 C.ar    1  UNL1        0.1052
     17 N          64.7919   91.6384   14.9251 N.ar    1  UNL1       -0.2223
     18 C          63.9232   90.5726   15.5247 C.ar    1  UNL1        0.2001
     19 N          62.9910   89.7858   14.6519 N.ar    1  UNL1       -0.2075
     20 C          62.9274   90.0648   13.1795 C.ar    1  UNL1        0.1509
     21 C          63.7960   91.1306   12.5799 C.ar    1  UNL1        0.1100
     22 C          59.1982   86.9176    9.6883 C.3     1  UNL1        0.0769
     23 C          59.4033   86.8928    8.2025 C.3     1  UNL1        0.0437
     24 C          60.5157   86.0778    7.6124 C.ar    1  UNL1       -0.0184
     25 C          61.8264   85.9648    8.3329 C.ar    1  UNL1       -0.0018
     26 C          62.9388   85.1497    7.7427 C.ar    1  UNL1        0.0316
     27 C          62.7405   84.4477    6.4321 C.ar    1  UNL1        0.1674
     28 F          63.8529   83.6326    5.8420 F       1  UNL1       -0.2018
     29 C          61.4297   84.5607    5.7116 C.ar    1  UNL1        0.1671
     30 F          61.2314   83.8586    4.4010 F       1  UNL1       -0.2018
     31 C          60.3174   85.3757    6.3017 C.ar    1  UNL1        0.0277
@<TRIPOS>BOND
     1     7     8    1
     2     8     9   ar
     3     9    10   ar
     4    10    11   ar
     5    11    12   ar
     6    12    13   ar
     7    13    14    1
     8    13    15   ar
     9    15    16   ar
    10    16    17   ar
    11    17    18   ar
    12    18    19   ar
    13    19    20   ar
    14    20     1    1
    15     1     2    1
    16     2     3    1
    17     3     4    1
    18     4    22    1
    19    22    23    1
    20    23    24    1
    21    24    25   ar
    22    25    26   ar
    23    26    27   ar
    24    27    28    1
    25    27    29   ar
    26    29    30    1
    27    29    31   ar
    28     4     5    1
    29     5     6    1
    30    20    21   ar
    31    21     8   ar
    32    15     9   ar
    33    21    16   ar
    34     6     1    1
    35    31    24   ar
@<TRIPOS>MOLECULE
*****
 31 35 0 0 0
SMALL
GASTEIGER

@<TRIPOS>ATOM
      1 N          62.0020   88.1107   11.3149 N.pl3   1  UNL1       -0.2892
      2 C          62.6308   89.1160   10.3964 C.3     1  UNL1        0.1095
      3 C          61.8222   89.7340    9.2944 C.3     1  UNL1        0.0939
      4 N          60.3848   89.3466    9.1109 N.3     1  UNL1       -0.2695
      5 C          59.7559   88.3412   10.0295 C.3     1  UNL1        0.0939
      6 C          60.5644   87.7233   11.1315 C.3     1  UNL1        0.1095
      7 C          61.4695   85.0570   10.4832 C.3     1  UNL1        0.1306
      8 N          62.3440   84.8916   11.6906 N.ar    1  UNL1       -0.3217
      9 C          62.7973   83.5884   12.2791 C.ar    1  UNL1        0.0654
     10 C          62.5420   82.1648   11.8815 C.ar    1  UNL1        0.0380
     11 C          63.1416   81.0445   12.6786 C.ar    1  UNL1        0.1013
     12 N          63.9966   81.3478   13.8731 N.ar    1  UNL1       -0.2323
     13 C          64.2519   82.7714   14.2707 C.ar    1  UNL1        0.1412
     14 CL         65.1068   83.0748   15.4653 Cl      1  UNL1       -0.0612
     15 C          63.6522   83.8917   13.4737 C.ar    1  UNL1        0.0635
     16 C          63.7273   85.3824   13.6234 C.ar    1  UNL1        0.1052
     17 N          64.4275   86.2568   14.6209 N.ar    1  UNL1       -0.2223
     18 C          64.3191   87.7493   14.5164 C.ar    1  UNL1        0.2001
     19 N          63.5106   88.3673   13.4144 N.ar    1  UNL1       -0.2075
     20 C          62.8105   87.4928   12.4169 C.ar    1  UNL1        0.1509
     21 C          62.9188   86.0003   12.5214 C.ar    1  UNL1        0.1100
     22 C          59.5763   89.9645    8.0089 C.3     1  UNL1        0.0769
     23 C          59.8111   89.5538    6.5855 C.3     1  UNL1        0.0437
     24 C          59.8291   90.5885    5.4996 C.ar    1  UNL1       -0.0184
     25 C          58.5597   91.2828    5.1041 C.ar    1  UNL1       -0.0018
     26 C          58.5778   92.3175    4.0181 C.ar    1  UNL1        0.0316
     27 C          59.8653   92.6577    3.3277 C.ar    1  UNL1        0.1674
     28 F          59.8833   93.6923    2.2418 F       1  UNL1       -0.2018
     29 C          61.1347   91.9633    3.7232 C.ar    1  UNL1        0.1671
     30 F          62.4222   92.3035    3.0328 F       1  UNL1       -0.2018
     31 C          61.1166   90.9287    4.8091 C.ar    1  UNL1        0.0277
@<TRIPOS>BOND
     1     7     8    1
     2     8     9   ar
     3     9    10   ar
     4    10    11   ar
     5    11    12   ar
     6    12    13   ar
     7    13    14    1
     8    13    15   ar
     9    15    16   ar
    10    16    17   ar
    11    17    18   ar
    12    18    19   ar
    13    19    20   ar
    14    20     1    1
    15     1     2    1
    16     2     3    1
    17     3     4    1
    18     4    22    1
    19    22    23    1
    20    23    24    1
    21    24    25   ar
    22    25    26   ar
    23    26    27   ar
    24    27    28    1
    25    27    29   ar
    26    29    30    1
    27    29    31   ar
    28     4     5    1
    29     5     6    1
    30    20    21   ar
    31    21     8   ar
    32    15     9   ar
    33    21    16   ar
    34     6     1    1
    35    31    24   ar
@<TRIPOS>MOLECULE
*****
 31 35 0 0 0
SMALL
GASTEIGER

@<TRIPOS>ATOM
      1 N          63.4880   87.1619   13.8158 N.pl3   1  UNL1       -0.2892
      2 C          64.3272   88.1525   14.5669 C.3     1  UNL1        0.1095
      3 C          64.5270   89.5345   14.0188 C.3     1  UNL1        0.0939
      4 N          63.8874   89.9257   12.7196 N.3     1  UNL1       -0.2695
      5 C          63.0481   88.9350   11.9685 C.3     1  UNL1        0.0939
      6 C          62.8484   87.5532   12.5166 C.3     1  UNL1        0.1095
      7 C          63.5390   85.6427   10.9891 C.3     1  UNL1        0.1306
      8 N          63.3347   84.5010   11.9404 N.ar    1  UNL1       -0.3217
      9 C          63.2004   83.0547   11.5659 C.ar    1  UNL1        0.0654
     10 C          63.2259   82.3548   10.2395 C.ar    1  UNL1        0.0380
     11 C          63.0623   80.8652   10.1743 C.ar    1  UNL1        0.1013
     12 N          62.8734   80.0755   11.4356 N.ar    1  UNL1       -0.2323
     13 C          62.8479   80.7755   12.7620 C.ar    1  UNL1        0.1412
     14 CL         62.6590   79.9858   14.0232 Cl      1  UNL1       -0.0612
     15 C          63.0115   82.2651   12.8272 C.ar    1  UNL1        0.0635
     16 C          63.0289   83.2233   13.9810 C.ar    1  UNL1        0.1052
     17 N          62.8887   83.0161   15.4600 N.ar    1  UNL1       -0.2223
     18 C          62.9483   84.1908   16.3909 C.ar    1  UNL1        0.2001
     19 N          63.1481   85.5727   15.8429 N.ar    1  UNL1       -0.2075
     20 C          63.2882   85.7799   14.3639 C.ar    1  UNL1        0.1509
     21 C          63.2287   84.6053   13.4330 C.ar    1  UNL1        0.1100
     22 C          64.0872   91.3076   12.1716 C.3     1  UNL1        0.0769
     23 C          65.2773   92.1172   12.5938 C.3     1  UNL1        0.0437
     24 C          65.9962   92.9722   11.5928 C.ar    1  UNL1       -0.0184
     25 C          66.8140   92.3327   10.5102 C.ar    1  UNL1       -0.0018
     26 C          67.5330   93.1878    9.5091 C.ar    1  UNL1        0.0316
     27 C          67.4340   94.6822    9.5907 C.ar    1  UNL1        0.1674
     28 F          68.1530   95.5372    8.5896 F       1  UNL1       -0.2018
     29 C          66.6162   95.3218   10.6734 C.ar    1  UNL1        0.1671
     30 F          66.5173   96.8162   10.7550 F       1  UNL1       -0.2018
     31 C          65.8973   94.4667   11.6744 C.ar    1  UNL1        0.0277
@<TRIPOS>BOND
     1     7     8    1
     2     8     9   ar
     3     9    10   ar
     4    10    11   ar
     5    11    12   ar
     6    12    13   ar
     7    13    14    1
     8    13    15   ar
     9    15    16   ar
    10    16    17   ar
    11    17    18   ar
    12    18    19   ar
    13    19    20   ar
    14    20     1    1
    15     1     2    1
    16     2     3    1
    17     3     4    1
    18     4    22    1
    19    22    23    1
    20    23    24    1
    21    24    25   ar
    22    25    26   ar
    23    26    27   ar
    24    27    28    1
    25    27    29   ar
    26    29    30    1
    27    29    31   ar
    28     4     5    1
    29     5     6    1
    30    20    21   ar
    31    21     8   ar
    32    15     9   ar
    33    21    16   ar
    34     6     1    1
    35    31    24   ar
@<TRIPOS>MOLECULE
*****
 31 35 0 0 0
SMALL
GASTEIGER

@<TRIPOS>ATOM
      1 N          63.0933   84.6036   15.7090 N.pl3   1  UNL1       -0.2892
      2 C          64.3863   83.9794   15.2748 C.3     1  UNL1        0.1095
      3 C          64.3786   82.6690   14.5448 C.3     1  UNL1        0.0939
      4 N          63.0780   81.9828   14.2491 N.3     1  UNL1       -0.2695
      5 C          61.7850   82.6070   14.6833 C.3     1  UNL1        0.0939
      6 C          61.7927   83.9173   15.4132 C.3     1  UNL1        0.1095
      7 C          63.8809   86.4188   13.1821 C.3     1  UNL1        0.1306
      8 N          63.7739   87.4469   14.2691 N.ar    1  UNL1       -0.3217
      9 C          63.9973   88.9219   14.1126 C.ar    1  UNL1        0.0654
     10 C          64.3657   89.7608   12.9250 C.ar    1  UNL1        0.0380
     11 C          64.5229   91.2450   13.0750 C.ar    1  UNL1        0.1013
     12 N          64.3118   91.8902   14.4126 N.ar    1  UNL1       -0.2323
     13 C          63.9435   91.0512   15.6002 C.ar    1  UNL1        0.1412
     14 CL         63.7324   91.6964   16.9378 Cl      1  UNL1       -0.0612
     15 C          63.7862   89.5671   15.4502 C.ar    1  UNL1        0.0635
     16 C          63.4324   88.4908   16.4333 C.ar    1  UNL1        0.1052
     17 N          63.1161   88.5347   17.8989 N.ar    1  UNL1       -0.2223
     18 C          62.7922   87.2682   18.6346 C.ar    1  UNL1        0.2001
     19 N          62.7846   85.9578   17.9046 N.ar    1  UNL1       -0.2075
     20 C          63.1009   85.9139   16.4390 C.ar    1  UNL1        0.1509
     21 C          63.4248   87.1804   15.7033 C.ar    1  UNL1        0.1100
     22 C          63.0704   80.6724   13.5191 C.3     1  UNL1        0.0769
     23 C          63.0449   80.6494   12.0195 C.3     1  UNL1        0.0437
     24 C          63.1284   81.9332   11.2481 C.ar    1  UNL1       -0.0184
     25 C          64.1510   82.0904   10.1621 C.ar    1  UNL1       -0.0018
     26 C          64.2345   83.3742    9.3907 C.ar    1  UNL1        0.0316
     27 C          63.2954   84.5008    9.7055 C.ar    1  UNL1        0.1674
     28 F          63.3790   85.7845    8.9341 F       1  UNL1       -0.2018
     29 C          62.2729   84.3435   10.7916 C.ar    1  UNL1        0.1671
     30 F          61.3338   85.4701   11.1064 F       1  UNL1       -0.2018
     31 C          62.1894   83.0598   11.5629 C.ar    1  UNL1        0.0277
@<TRIPOS>BOND
     1     7     8    1
     2     8     9   ar
     3     9    10   ar
     4    10    11   ar
     5    11    12   ar
     6    12    13   ar
     7    13    14    1
     8    13    15   ar
     9    15    16   ar
    10    16    17   ar
    11    17    18   ar
    12    18    19   ar
    13    19    20   ar
    14    20     1    1
    15     1     2    1
    16     2     3    1
    17     3     4    1
    18     4    22    1
    19    22    23    1
    20    23    24    1
    21    24    25   ar
    22    25    26   ar
    23    26    27   ar
    24    27    28    1
    25    27    29   ar
    26    29    30    1
    27    29    31   ar
    28     4     5    1
    29     5     6    1
    30    20    21   ar
    31    21     8   ar
    32    15     9   ar
    33    21    16   ar
    34     6     1    1
    35    31    24   ar
@<TRIPOS>MOLECULE
*****
 31 35 0 0 0
SMALL
GASTEIGER

@<TRIPOS>ATOM
      1 N          63.2945   88.0800   13.3029 N.pl3   1  UNL1       -0.2892
      2 C          63.4577   87.6850   14.7407 C.3     1  UNL1        0.1095
      3 C          63.7506   88.7295   15.7768 C.3     1  UNL1        0.0939
      4 N          63.8803   90.1689   15.3750 N.3     1  UNL1       -0.2695
      5 C          63.7170   90.5638   13.9372 C.3     1  UNL1        0.0939
      6 C          63.4241   89.5194   12.9012 C.3     1  UNL1        0.1095
      7 C          61.4590   89.9331   11.4327 C.3     1  UNL1        0.1306
      8 N          61.4371   88.6340   10.6830 N.ar    1  UNL1       -0.3217
      9 C          60.7121   88.3707    9.3965 C.ar    1  UNL1        0.0654
     10 C          59.8559   89.2455    8.5297 C.ar    1  UNL1        0.0380
     11 C          59.2506   88.6938    7.2730 C.ar    1  UNL1        0.1013
     12 N          59.5017   87.2673    6.8831 N.ar    1  UNL1       -0.2323
     13 C          60.3579   86.3925    7.7499 C.ar    1  UNL1        0.1412
     14 CL         60.6089   84.9659    7.3601 Cl      1  UNL1       -0.0612
     15 C          60.9631   86.9441    9.0066 C.ar    1  UNL1        0.0635
     16 C          61.8432   86.3259   10.0522 C.ar    1  UNL1        0.1052
     17 N          62.4157   84.9468   10.1947 N.ar    1  UNL1       -0.2223
     18 C          63.2812   84.6121   11.3733 C.ar    1  UNL1        0.2001
     19 N          63.5741   85.6565   12.4094 N.ar    1  UNL1       -0.2075
     20 C          63.0015   87.0356   12.2669 C.ar    1  UNL1        0.1509
     21 C          62.1361   87.3703   11.0883 C.ar    1  UNL1        0.1100
     22 C          64.1732   91.2132   16.4111 C.3     1  UNL1        0.0769
     23 C          64.8855   92.4751   16.0235 C.3     1  UNL1        0.0437
     24 C          66.2877   92.4126   15.4943 C.ar    1  UNL1       -0.0184
     25 C          67.4469   92.6764   16.4089 C.ar    1  UNL1       -0.0018
     26 C          68.8491   92.6138   15.8796 C.ar    1  UNL1        0.0316
     27 C          69.0920   92.2875   14.4358 C.ar    1  UNL1        0.1674
     28 F          70.4941   92.2250   13.9066 F       1  UNL1       -0.2018
     29 C          67.9327   92.0237   13.5212 C.ar    1  UNL1        0.1671
     30 F          68.1755   91.6974   12.0775 F       1  UNL1       -0.2018
     31 C          66.5306   92.0863   14.0505 C.ar    1  UNL1        0.0277
@<TRIPOS>BOND
     1     7     8    1
     2     8     9   ar
     3     9    10   ar
     4    10    11   ar
     5    11    12   ar
     6    12    13   ar
     7    13    14    1
     8    13    15   ar
     9    15    16   ar
    10    16    17   ar
    11    17    18   ar
    12    18    19   ar
    13    19    20   ar
    14    20     1    1
    15     1     2    1
    16     2     3    1
    17     3     4    1
    18     4    22    1
    19    22    23    1
    20    23    24    1
    21    24    25   ar
    22    25    26   ar
    23    26    27   ar
    24    27    28    1
    25    27    29   ar
    26    29    30    1
    27    29    31   ar
    28     4     5    1
    29     5     6    1
    30    20    21   ar
    31    21     8   ar
    32    15     9   ar
    33    21    16   ar
    34     6     1    1
    35    31    24   ar
