@<TRIPOS>MOLECULE
*****
 35 39 0 0 0
SMALL
GASTEIGER

@<TRIPOS>ATOM
      1 C          63.4432   86.4941   15.8401 C.3     1  UNL1        0.0864
      2 C          63.1912   86.2425   17.2973 C.3     1  UNL1        0.0388
      3 C          63.0016   87.5694   17.9707 C.3     1  UNL1        0.1115
      4 O          62.7256   87.7865   19.4290 O.3     1  UNL1       -0.3844
      5 C          63.1363   88.6410   16.9298 C.3     1  UNL1        0.0373
      6 C          63.4092   87.9765   15.6130 C.3     1  UNL1        0.0698
      7 H          62.6869   86.9296   19.8818 H       1  UNL1        0.2103
      8 C          63.6125   88.6721   14.2997 C.ar    1  UNL1        0.1430
      9 N          63.2929   88.1108   12.9459 N.ar    1  UNL1       -0.1337
     10 N          63.6539   89.1430   11.9191 N.ar    1  UNL1       -0.1337
     11 C          64.1967   90.3422   12.6384 C.ar    1  UNL1        0.1425
     12 N          64.1711   90.0511   14.1096 N.ar    1  UNL1       -0.3040
     13 C          64.6803   91.6098   11.9986 C.3     1  UNL1        0.0588
     14 C          64.4793   92.2692   10.6664 C.3     1  UNL1        0.0075
     15 C          65.3640   93.4025   11.0938 C.3     1  UNL1        0.0009
     16 C          65.5650   92.7432   12.4261 C.3     1  UNL1        0.0075
     17 C          65.8475   94.6702   10.4541 C.3     1  UNL1        0.0000
     18 C          67.0202   94.6386    9.5193 C.3     1  UNL1        0.0000
     19 C          67.3774   95.8582    8.7225 C.3     1  UNL1        0.0000
     20 C          67.8357   93.3872    9.3812 C.3     1  UNL1        0.0000
     21 C          64.6246   90.9767   15.1994 C.3     1  UNL1        0.0878
     22 C          65.6926   91.8270   15.8209 C.3     1  UNL1        0.0246
     23 C          64.3419   91.7294   16.4658 C.3     1  UNL1        0.0246
     24 N          62.5382   84.9020   13.9972 N.am    1  UNL1       -0.2842
     25 C          63.6864   85.4472   14.7938 C.2     1  UNL1        0.2261
     26 O          65.0778   84.9455   14.5440 O.2     1  UNL1       -0.2748
     27 H          61.6251   85.2313   14.1612 H       1  UNL1        0.1548
     28 C          63.5110   80.7143    9.8120 C.3     1  UNL1        0.0310
     29 C          63.2678   81.7612   10.8583 C.ar    1  UNL1       -0.0221
     30 C          63.5701   83.2005   10.5636 C.ar    1  UNL1       -0.0030
     31 C          63.3269   84.2475   11.6099 C.ar    1  UNL1        0.0140
     32 C          62.7814   83.8551   12.9509 C.ar    1  UNL1        0.0462
     33 C          62.4792   82.4157   13.2457 C.ar    1  UNL1       -0.0087
     34 C          61.9337   82.0233   14.5868 C.3     1  UNL1        0.0323
     35 C          62.7224   81.3688   12.1993 C.ar    1  UNL1       -0.0073
@<TRIPOS>BOND
     1    28    29    1
     2    29    30   ar
     3    30    31   ar
     4    31    32   ar
     5    32    24    1
     6    24    25   am
     7    25    26    2
     8     1    25    1
     9     1     2    1
    10     2     3    1
    11     3     4    1
    12     3     5    1
    13     5     6    1
    14     6     8    1
    15     8     9   ar
    16     9    10   ar
    17    10    11   ar
    18    13    11    1
    19    13    14    1
    20    14    15    1
    21    15    17    1
    22    17    18    1
    23    18    19    1
    24    18    20    1
    25    15    16    1
    26    11    12   ar
    27    12    21    1
    28    21    22    1
    29    22    23    1
    30    32    33   ar
    31    33    34    1
    32    33    35   ar
    33    35    29   ar
    34     6     1    1
    35    12     8   ar
    36    23    21    1
    37    16    13    1
    38    24    27    1
    39     4     7    1
@<TRIPOS>MOLECULE
*****
 35 39 0 0 0
SMALL
GASTEIGER

@<TRIPOS>ATOM
      1 C          63.7572   85.1677   13.1018 C.3     1  UNL1        0.0864
      2 C          64.3785   83.8150   13.2873 C.3     1  UNL1        0.0388
      3 C          63.7084   82.8636   12.3408 C.3     1  UNL1        0.1115
      4 O          64.0192   81.4038   12.1911 O.3     1  UNL1       -0.3844
      5 C          62.6731   83.6281   11.5705 C.3     1  UNL1        0.0373
      6 C          62.7032   85.0522   12.0408 C.3     1  UNL1        0.0698
      7 H          64.7288   81.1596   12.8057 H       1  UNL1        0.2103
      8 C          61.8323   86.1653   11.5382 C.ar    1  UNL1        0.1430
      9 N          61.0784   87.1464   12.3863 N.ar    1  UNL1       -0.1337
     10 N          60.3425   88.0801   11.4716 N.ar    1  UNL1       -0.1337
     11 C          60.6416   87.6761   10.0584 C.ar    1  UNL1        0.1425
     12 N          61.5623   86.4927   10.0996 N.ar    1  UNL1       -0.3040
     13 C          60.1128   88.3391    8.8212 C.3     1  UNL1        0.0588
     14 C          60.1040   89.7423    8.2909 C.3     1  UNL1        0.0075
     15 C          59.3649   89.2769    7.0715 C.3     1  UNL1        0.0009
     16 C          59.3736   87.8737    7.6017 C.3     1  UNL1        0.0075
     17 C          58.8360   89.9399    5.8343 C.3     1  UNL1        0.0000
     18 C          59.6172   91.0415    5.1814 C.3     1  UNL1        0.0000
     19 C          61.0788   90.8586    4.8983 C.3     1  UNL1        0.0000
     20 C          58.9367   92.3262    4.8117 C.3     1  UNL1        0.0000
     21 C          62.1159   85.7645    8.9108 C.3     1  UNL1        0.0878
     22 C          63.2545   85.0626    8.2318 C.3     1  UNL1        0.0246
     23 C          61.9361   85.2051    7.5306 C.3     1  UNL1        0.0246
     24 N          63.4818   87.7225   13.4853 N.am    1  UNL1       -0.2842
     25 C          64.1253   86.4167   13.8466 C.2     1  UNL1        0.2261
     26 O          65.1370   86.3596   14.9527 O.2     1  UNL1       -0.2748
     27 H          62.8179   87.7600   12.7594 H       1  UNL1        0.1548
     28 C          64.9543   92.7182   16.4645 C.3     1  UNL1        0.0310
     29 C          64.5862   91.4693   15.7197 C.ar    1  UNL1       -0.0221
     30 C          64.9928   91.3040   14.2854 C.ar    1  UNL1       -0.0030
     31 C          64.6247   90.0551   13.5406 C.ar    1  UNL1        0.0140
     32 C          63.8500   88.9714   14.2301 C.ar    1  UNL1        0.0462
     33 C          63.4434   89.1367   15.6645 C.ar    1  UNL1       -0.0087
     34 C          62.6686   88.0530   16.3541 C.3     1  UNL1        0.0323
     35 C          63.8115   90.3856   16.4093 C.ar    1  UNL1       -0.0073
@<TRIPOS>BOND
     1    28    29    1
     2    29    30   ar
     3    30    31   ar
     4    31    32   ar
     5    32    24    1
     6    24    25   am
     7    25    26    2
     8     1    25    1
     9     1     2    1
    10     2     3    1
    11     3     4    1
    12     3     5    1
    13     5     6    1
    14     6     8    1
    15     8     9   ar
    16     9    10   ar
    17    10    11   ar
    18    13    11    1
    19    13    14    1
    20    14    15    1
    21    15    17    1
    22    17    18    1
    23    18    19    1
    24    18    20    1
    25    15    16    1
    26    11    12   ar
    27    12    21    1
    28    21    22    1
    29    22    23    1
    30    32    33   ar
    31    33    34    1
    32    33    35   ar
    33    35    29   ar
    34     6     1    1
    35    12     8   ar
    36    23    21    1
    37    16    13    1
    38    24    27    1
    39     4     7    1
@<TRIPOS>MOLECULE
*****
 35 39 0 0 0
SMALL
GASTEIGER

@<TRIPOS>ATOM
      1 C          61.7517   87.3535   10.0498 C.3     1  UNL1        0.0864
      2 C          60.9492   87.5492    8.7976 C.3     1  UNL1        0.0388
      3 C          60.6142   89.0070    8.6851 C.3     1  UNL1        0.1115
      4 O          59.8227   89.6472    7.5834 O.3     1  UNL1       -0.3844
      5 C          61.2096   89.7122    9.8675 C.3     1  UNL1        0.0373
      6 C          61.9126   88.6902   10.7109 C.3     1  UNL1        0.0698
      7 H          59.5540   88.9702    6.9428 H       1  UNL1        0.2103
      8 C          62.6475   88.9580   11.9909 C.ar    1  UNL1        0.1430
      9 N          62.5948   88.1154   13.2307 N.ar    1  UNL1       -0.1337
     10 N          63.4788   88.7520   14.2618 N.ar    1  UNL1       -0.1337
     11 C          64.0779   89.9881   13.6591 C.ar    1  UNL1        0.1425
     12 N          63.5641   90.1154   12.2557 N.ar    1  UNL1       -0.3040
     13 C          65.0246   90.9313   14.3404 C.3     1  UNL1        0.0588
     14 C          65.0185   91.6893   15.6348 C.3     1  UNL1        0.0075
     15 C          66.3634   92.2652   15.3039 C.3     1  UNL1        0.0009
     16 C          66.3696   91.5072   14.0096 C.3     1  UNL1        0.0075
     17 C          67.3101   93.2084   15.9852 C.3     1  UNL1        0.0000
     18 C          68.7429   93.2798   15.5469 C.3     1  UNL1        0.0000
     19 C          69.2928   92.2460   14.6094 C.3     1  UNL1        0.0000
     20 C          69.6257   94.3850   16.0460 C.3     1  UNL1        0.0000
     21 C          63.9068   91.2082   11.2871 C.3     1  UNL1        0.0878
     22 C          64.7768   92.3622   10.8851 C.3     1  UNL1        0.0246
     23 C          63.6304   91.9472   10.0112 C.3     1  UNL1        0.0246
     24 N          62.0405   85.6250   11.9678 N.am    1  UNL1       -0.2842
     25 C          62.2974   86.0498   10.5524 C.2     1  UNL1        0.2261
     26 O          63.1001   85.1709    9.6395 O.2     1  UNL1       -0.2748
     27 H          61.5137   86.2018   12.5669 H       1  UNL1        0.1548
     28 C          64.2234   80.4103   13.9783 C.3     1  UNL1        0.0310
     29 C          63.6777   81.7140   13.4757 C.ar    1  UNL1       -0.0221
     30 C          62.7055   81.7296   12.3335 C.ar    1  UNL1       -0.0030
     31 C          62.1598   83.0333   11.8309 C.ar    1  UNL1        0.0140
     32 C          62.5862   84.3213   12.4704 C.ar    1  UNL1        0.0462
     33 C          63.5584   84.3057   13.6126 C.ar    1  UNL1       -0.0087
     34 C          63.9849   85.5938   14.2522 C.3     1  UNL1        0.0323
     35 C          64.1041   83.0020   14.1152 C.ar    1  UNL1       -0.0073
@<TRIPOS>BOND
     1    28    29    1
     2    29    30   ar
     3    30    31   ar
     4    31    32   ar
     5    32    24    1
     6    24    25   am
     7    25    26    2
     8     1    25    1
     9     1     2    1
    10     2     3    1
    11     3     4    1
    12     3     5    1
    13     5     6    1
    14     6     8    1
    15     8     9   ar
    16     9    10   ar
    17    10    11   ar
    18    13    11    1
    19    13    14    1
    20    14    15    1
    21    15    17    1
    22    17    18    1
    23    18    19    1
    24    18    20    1
    25    15    16    1
    26    11    12   ar
    27    12    21    1
    28    21    22    1
    29    22    23    1
    30    32    33   ar
    31    33    34    1
    32    33    35   ar
    33    35    29   ar
    34     6     1    1
    35    12     8   ar
    36    23    21    1
    37    16    13    1
    38    24    27    1
    39     4     7    1
@<TRIPOS>MOLECULE
*****
 35 39 0 0 0
SMALL
GASTEIGER

@<TRIPOS>ATOM
      1 C          63.0958   90.5181   11.6085 C.3     1  UNL1        0.0864
      2 C          62.4435   91.2604   10.4799 C.3     1  UNL1        0.0388
      3 C          61.6403   90.2768    9.6813 C.3     1  UNL1        0.1115
      4 O          60.8245   90.5886    8.4619 O.3     1  UNL1       -0.3844
      5 C          61.7962   88.9269   10.3164 C.3     1  UNL1        0.0373
      6 C          62.6958   89.0760   11.5074 C.3     1  UNL1        0.0698
      7 H          60.8925   91.5351    8.2606 H       1  UNL1        0.2103
      8 C          63.1207   87.9761   12.4346 C.ar    1  UNL1        0.1430
      9 N          63.8480   88.1507   13.7348 N.ar    1  UNL1       -0.1337
     10 N          64.0697   86.7910   14.3281 N.ar    1  UNL1       -0.1337
     11 C          63.4794   85.7761   13.3946 C.ar    1  UNL1        0.1425
     12 N          62.8929   86.5085   12.2244 N.ar    1  UNL1       -0.3040
     13 C          63.4762   84.2897   13.5961 C.3     1  UNL1        0.0588
     14 C          62.8590   83.3560   14.5947 C.3     1  UNL1        0.0075
     15 C          63.4717   82.1876   13.8809 C.3     1  UNL1        0.0009
     16 C          64.0889   83.1213   12.8823 C.3     1  UNL1        0.0075
     17 C          63.4685   80.7012   14.0824 C.3     1  UNL1        0.0000
     18 C          62.3399   79.8736   13.5426 C.3     1  UNL1        0.0000
     19 C          60.9652   80.0073   14.1275 C.3     1  UNL1        0.0000
     20 C          62.5861   78.9122   12.4178 C.3     1  UNL1        0.0000
     21 C          62.2002   85.8831   11.0501 C.3     1  UNL1        0.0878
     22 C          62.0808   84.7661   10.0560 C.3     1  UNL1        0.0246
     23 C          61.1198   85.9169   10.0100 C.3     1  UNL1        0.0246
     24 N          65.3894   91.5240   12.2996 N.am    1  UNL1       -0.2842
     25 C          63.9910   91.1136   12.6545 C.2     1  UNL1        0.2261
     26 O          63.4877   91.2986   14.0555 O.2     1  UNL1       -0.2748
     27 H          65.7197   91.4026   11.3802 H       1  UNL1        0.1548
     28 C          68.9701   93.9058   16.4836 C.3     1  UNL1        0.0310
     29 C          68.0749   93.3103   15.4376 C.ar    1  UNL1       -0.0221
     30 C          67.7445   91.8477   15.4775 C.ar    1  UNL1       -0.0030
     31 C          66.8493   91.2523   14.4315 C.ar    1  UNL1        0.0140
     32 C          66.2846   92.1195   13.3456 C.ar    1  UNL1        0.0462
     33 C          66.6150   93.5820   13.3058 C.ar    1  UNL1       -0.0087
     34 C          66.0502   94.4493   12.2200 C.3     1  UNL1        0.0323
     35 C          67.5102   94.1775   14.3518 C.ar    1  UNL1       -0.0073
@<TRIPOS>BOND
     1    28    29    1
     2    29    30   ar
     3    30    31   ar
     4    31    32   ar
     5    32    24    1
     6    24    25   am
     7    25    26    2
     8     1    25    1
     9     1     2    1
    10     2     3    1
    11     3     4    1
    12     3     5    1
    13     5     6    1
    14     6     8    1
    15     8     9   ar
    16     9    10   ar
    17    10    11   ar
    18    13    11    1
    19    13    14    1
    20    14    15    1
    21    15    17    1
    22    17    18    1
    23    18    19    1
    24    18    20    1
    25    15    16    1
    26    11    12   ar
    27    12    21    1
    28    21    22    1
    29    22    23    1
    30    32    33   ar
    31    33    34    1
    32    33    35   ar
    33    35    29   ar
    34     6     1    1
    35    12     8   ar
    36    23    21    1
    37    16    13    1
    38    24    27    1
    39     4     7    1
@<TRIPOS>MOLECULE
*****
 35 39 0 0 0
SMALL
GASTEIGER

@<TRIPOS>ATOM
      1 C          60.7708   89.8452    9.0367 C.3     1  UNL1        0.0864
      2 C          60.1219   90.4747    7.8397 C.3     1  UNL1        0.0388
      3 C          59.3843   89.4019    7.0946 C.3     1  UNL1        0.1115
      4 O          58.5926   89.5888    5.8343 O.3     1  UNL1       -0.3844
      5 C          59.5773   88.1095    7.8310 C.3     1  UNL1        0.0373
      6 C          60.4342   88.3834    9.0313 C.3     1  UNL1        0.0698
      7 H          58.6272   90.5203    5.5659 H       1  UNL1        0.2103
      8 C          60.8767   87.3730   10.0478 C.ar    1  UNL1        0.1430
      9 N          60.7894   87.5246   11.5376 N.ar    1  UNL1       -0.1337
     10 N          61.3430   86.2789   12.1635 N.ar    1  UNL1       -0.1337
     11 C          61.7725   85.3575   11.0605 C.ar    1  UNL1        0.1425
     12 N          61.4843   86.0337    9.7530 N.ar    1  UNL1       -0.3040
     13 C          62.3830   83.9984   11.2346 C.3     1  UNL1        0.0588
     14 C          62.3043   82.9265   12.2809 C.3     1  UNL1        0.0075
     15 C          63.2463   82.0765   11.4808 C.3     1  UNL1        0.0009
     16 C          63.3250   83.1484   10.4345 C.3     1  UNL1        0.0075
     17 C          63.8568   80.7174   11.6549 C.3     1  UNL1        0.0000
     18 C          62.9766   79.5070   11.7544 C.3     1  UNL1        0.0000
     19 C          62.7924   78.6135   10.5638 C.3     1  UNL1        0.0000
     20 C          62.2804   79.1900   13.0448 C.3     1  UNL1        0.0000
     21 C          61.7560   85.4696    8.3900 C.3     1  UNL1        0.0878
     22 C          61.2754   85.0973    7.0186 C.3     1  UNL1        0.0246
     23 C          62.7073   84.8647    7.4003 C.3     1  UNL1        0.0246
     24 N          63.1047   90.5316    9.9484 N.am    1  UNL1       -0.2842
     25 C          61.6091   90.5531   10.0595 C.2     1  UNL1        0.2261
     26 O          60.9516   91.2826   11.1934 O.2     1  UNL1       -0.2748
     27 H          63.5363   90.0529    9.2042 H       1  UNL1        0.1548
     28 C          66.4579   93.3636   14.0394 C.3     1  UNL1        0.0310
     29 C          65.6196   92.6556   13.0167 C.ar    1  UNL1       -0.0221
     30 C          65.5038   93.2101   11.6278 C.ar    1  UNL1       -0.0030
     31 C          64.6655   92.5021   10.6050 C.ar    1  UNL1        0.0140
     32 C          63.9430   91.2396   10.9711 C.ar    1  UNL1        0.0462
     33 C          64.0589   90.6851   12.3600 C.ar    1  UNL1       -0.0087
     34 C          63.3364   89.4225   12.7262 C.3     1  UNL1        0.0323
     35 C          64.8971   91.3931   13.3828 C.ar    1  UNL1       -0.0073
@<TRIPOS>BOND
     1    28    29    1
     2    29    30   ar
     3    30    31   ar
     4    31    32   ar
     5    32    24    1
     6    24    25   am
     7    25    26    2
     8     1    25    1
     9     1     2    1
    10     2     3    1
    11     3     4    1
    12     3     5    1
    13     5     6    1
    14     6     8    1
    15     8     9   ar
    16     9    10   ar
    17    10    11   ar
    18    13    11    1
    19    13    14    1
    20    14    15    1
    21    15    17    1
    22    17    18    1
    23    18    19    1
    24    18    20    1
    25    15    16    1
    26    11    12   ar
    27    12    21    1
    28    21    22    1
    29    22    23    1
    30    32    33   ar
    31    33    34    1
    32    33    35   ar
    33    35    29   ar
    34     6     1    1
    35    12     8   ar
    36    23    21    1
    37    16    13    1
    38    24    27    1
    39     4     7    1
@<TRIPOS>MOLECULE
*****
 35 39 0 0 0
SMALL
GASTEIGER

@<TRIPOS>ATOM
      1 C          63.3165   83.7570   12.1256 C.3     1  UNL1        0.0864
      2 C          64.0854   82.5007   11.8417 C.3     1  UNL1        0.0388
      3 C          64.1535   82.3253   10.3535 C.3     1  UNL1        0.1115
      4 O          64.8297   81.1996    9.6285 O.3     1  UNL1       -0.3844
      5 C          63.4268   83.4732    9.7177 C.3     1  UNL1        0.0373
      6 C          62.9095   84.3580   10.8129 C.3     1  UNL1        0.0698
      7 H          65.2236   80.5906   10.2726 H       1  UNL1        0.2103
      8 C          62.1232   85.6219   10.6278 C.ar    1  UNL1        0.1430
      9 N          61.7419   86.5893   11.7089 N.ar    1  UNL1       -0.1337
     10 N          60.9633   87.7057   11.0785 N.ar    1  UNL1       -0.1337
     11 C          60.8634   87.4282    9.6077 C.ar    1  UNL1        0.1425
     12 N          61.5803   86.1404    9.3293 N.ar    1  UNL1       -0.3040
     13 C          60.1686   88.2877    8.5936 C.3     1  UNL1        0.0588
     14 C          59.3834   88.0276    7.3423 C.3     1  UNL1        0.0075
     15 C          59.1859   89.5032    7.1594 C.3     1  UNL1        0.0009
     16 C          59.9711   89.7634    8.4107 C.3     1  UNL1        0.0075
     17 C          58.4911   90.3627    6.1452 C.3     1  UNL1        0.0000
     18 C          59.2915   91.1033    5.1152 C.3     1  UNL1        0.0000
     19 C          60.7609   90.8375    4.9735 C.3     1  UNL1        0.0000
     20 C          58.6223   92.1098    4.2268 C.3     1  UNL1        0.0000
     21 C          61.7282   85.4860    7.9877 C.3     1  UNL1        0.0878
     22 C          61.1112   84.8489    6.7780 C.3     1  UNL1        0.0246
     23 C          62.6015   84.9896    6.8737 C.3     1  UNL1        0.0246
     24 N          63.7503   85.5174   13.9864 N.am    1  UNL1       -0.2842
     25 C          63.0086   84.3144   13.4837 C.2     1  UNL1        0.2261
     26 O          61.9591   83.6688   14.3392 O.2     1  UNL1       -0.2748
     27 H          64.4391   85.9411   13.4250 H       1  UNL1        0.1548
     28 C          62.5189   87.7471   19.4189 C.3     1  UNL1        0.0310
     29 C          62.8268   87.1897   18.0608 C.ar    1  UNL1       -0.0221
     30 C          62.5977   85.7346   17.7778 C.ar    1  UNL1       -0.0030
     31 C          62.9055   85.1772   16.4196 C.ar    1  UNL1        0.0140
     32 C          63.4424   86.0748   15.3445 C.ar    1  UNL1        0.0462
     33 C          63.6715   87.5299   15.6276 C.ar    1  UNL1       -0.0087
     34 C          64.2085   88.4277   14.5525 C.3     1  UNL1        0.0323
     35 C          63.3637   88.0873   16.9857 C.ar    1  UNL1       -0.0073
@<TRIPOS>BOND
     1    28    29    1
     2    29    30   ar
     3    30    31   ar
     4    31    32   ar
     5    32    24    1
     6    24    25   am
     7    25    26    2
     8     1    25    1
     9     1     2    1
    10     2     3    1
    11     3     4    1
    12     3     5    1
    13     5     6    1
    14     6     8    1
    15     8     9   ar
    16     9    10   ar
    17    10    11   ar
    18    13    11    1
    19    13    14    1
    20    14    15    1
    21    15    17    1
    22    17    18    1
    23    18    19    1
    24    18    20    1
    25    15    16    1
    26    11    12   ar
    27    12    21    1
    28    21    22    1
    29    22    23    1
    30    32    33   ar
    31    33    34    1
    32    33    35   ar
    33    35    29   ar
    34     6     1    1
    35    12     8   ar
    36    23    21    1
    37    16    13    1
    38    24    27    1
    39     4     7    1
@<TRIPOS>MOLECULE
*****
 35 39 0 0 0
SMALL
GASTEIGER

@<TRIPOS>ATOM
      1 C          61.8197   89.8534   10.6372 C.3     1  UNL1        0.0864
      2 C          61.1338   90.7444    9.6442 C.3     1  UNL1        0.0388
      3 C          60.3799   89.8735    8.6834 C.3     1  UNL1        0.1115
      4 O          59.5516   90.3485    7.5266 O.3     1  UNL1       -0.3844
      5 C          60.5997   88.4444    9.0825 C.3     1  UNL1        0.0373
      6 C          61.4895   88.4319   10.2900 C.3     1  UNL1        0.0698
      7 H          59.5743   91.3175    7.4889 H       1  UNL1        0.2103
      8 C          61.9657   87.2122   11.0218 C.ar    1  UNL1        0.1430
      9 N          62.3302   87.1422   12.4751 N.ar    1  UNL1       -0.1337
     10 N          62.7506   85.7351   12.7803 N.ar    1  UNL1       -0.1337
     11 C          62.6460   84.9354   11.5156 C.ar    1  UNL1        0.1425
     12 N          62.1608   85.8483   10.4288 N.ar    1  UNL1       -0.3040
     13 C          62.9696   83.4786   11.3643 C.3     1  UNL1        0.0588
     14 C          62.4962   82.2136   12.0166 C.3     1  UNL1        0.0075
     15 C          63.4273   81.4183   11.1503 C.3     1  UNL1        0.0009
     16 C          63.9008   82.6833   10.4979 C.3     1  UNL1        0.0075
     17 C          63.7510   79.9615   10.9990 C.3     1  UNL1        0.0000
     18 C          62.8531   79.0739   10.1891 C.3     1  UNL1        0.0000
     19 C          62.6282   77.6513   10.6082 C.3     1  UNL1        0.0000
     20 C          62.1799   79.6090    8.9600 C.3     1  UNL1        0.0000
     21 C          61.9141   85.4647    8.9998 C.3     1  UNL1        0.0878
     22 C          60.9887   85.3608    7.8238 C.3     1  UNL1        0.0246
     23 C          62.4122   84.9041    7.7007 C.3     1  UNL1        0.0246
     24 N          63.9011   91.1396   11.5108 N.am    1  UNL1       -0.2842
     25 C          62.6838   90.3046   11.7772 C.2     1  UNL1        0.2261
     26 O          62.3307   89.9209   13.1837 O.2     1  UNL1       -0.2748
     27 H          64.1329   91.3914   10.5877 H       1  UNL1        0.1548
     28 C          67.3578   92.9447   16.0707 C.3     1  UNL1        0.0310
     29 C          66.4936   92.4934   14.9307 C.ar    1  UNL1       -0.0221
     30 C          65.6124   91.2898   15.0883 C.ar    1  UNL1       -0.0030
     31 C          64.7483   90.8386   13.9483 C.ar    1  UNL1        0.0140
     32 C          64.7653   91.5909   12.6507 C.ar    1  UNL1        0.0462
     33 C          65.6465   92.7944   12.4932 C.ar    1  UNL1       -0.0087
     34 C          65.6635   93.5468   11.1956 C.3     1  UNL1        0.0323
     35 C          66.5106   93.2457   13.6332 C.ar    1  UNL1       -0.0073
@<TRIPOS>BOND
     1    28    29    1
     2    29    30   ar
     3    30    31   ar
     4    31    32   ar
     5    32    24    1
     6    24    25   am
     7    25    26    2
     8     1    25    1
     9     1     2    1
    10     2     3    1
    11     3     4    1
    12     3     5    1
    13     5     6    1
    14     6     8    1
    15     8     9   ar
    16     9    10   ar
    17    10    11   ar
    18    13    11    1
    19    13    14    1
    20    14    15    1
    21    15    17    1
    22    17    18    1
    23    18    19    1
    24    18    20    1
    25    15    16    1
    26    11    12   ar
    27    12    21    1
    28    21    22    1
    29    22    23    1
    30    32    33   ar
    31    33    34    1
    32    33    35   ar
    33    35    29   ar
    34     6     1    1
    35    12     8   ar
    36    23    21    1
    37    16    13    1
    38    24    27    1
    39     4     7    1
@<TRIPOS>MOLECULE
*****
 35 39 0 0 0
SMALL
GASTEIGER

@<TRIPOS>ATOM
      1 C          62.0873   85.2154   10.9706 C.3     1  UNL1        0.0864
      2 C          61.9821   83.7324   11.1702 C.3     1  UNL1        0.0388
      3 C          62.6446   83.3918   12.4722 C.3     1  UNL1        0.1115
      4 O          62.7704   82.0197   13.0650 O.3     1  UNL1       -0.3844
      5 C          63.1591   84.6643   13.0773 C.3     1  UNL1        0.0373
      6 C          62.8147   85.7913   12.1493 C.3     1  UNL1        0.0698
      7 H          62.3541   81.3728   12.4742 H       1  UNL1        0.2103
      8 C          63.1404   87.2399   12.3625 C.ar    1  UNL1        0.1430
      9 N          62.7396   88.3747   11.4673 N.ar    1  UNL1       -0.1337
     10 N          63.2756   89.6442   12.0599 N.ar    1  UNL1       -0.1337
     11 C          64.0077   89.2939   13.3214 C.ar    1  UNL1        0.1425
     12 N          63.9241   87.8080   13.5084 N.ar    1  UNL1       -0.3040
     13 C          64.7015   90.2599   14.2353 C.3     1  UNL1        0.0588
     14 C          64.4143   90.8281   15.5935 C.3     1  UNL1        0.0075
     15 C          65.6827   91.6262   15.5279 C.3     1  UNL1        0.0009
     16 C          65.9699   91.0579   14.1697 C.3     1  UNL1        0.0075
     17 C          66.3765   92.5922   16.4418 C.3     1  UNL1        0.0000
     18 C          67.8331   92.8936   16.2484 C.3     1  UNL1        0.0000
     19 C          68.2547   94.1971   15.6377 C.3     1  UNL1        0.0000
     20 C          68.8683   91.8914   16.6657 C.3     1  UNL1        0.0000
     21 C          64.5197   87.0272   14.6422 C.3     1  UNL1        0.0878
     22 C          65.6743   86.2777   15.2382 C.3     1  UNL1        0.0246
     23 C          64.3966   86.4242   16.0102 C.3     1  UNL1        0.0246
     24 N          60.5766   87.1006   10.0147 N.am    1  UNL1       -0.2842
     25 C          61.5579   85.9870    9.7983 C.2     1  UNL1        0.2261
     26 O          62.0099   85.6448    8.4094 O.2     1  UNL1       -0.2748
     27 H          60.2800   87.3251   10.9262 H       1  UNL1        0.1548
     28 C          58.4592   90.1868    5.3251 C.3     1  UNL1        0.0310
     29 C          58.9885   89.4153    6.4975 C.ar    1  UNL1       -0.0221
     30 C          58.9783   87.9155    6.4747 C.ar    1  UNL1       -0.0030
     31 C          59.5076   87.1440    7.6471 C.ar    1  UNL1        0.0140
     32 C          60.0473   87.8722    8.8423 C.ar    1  UNL1        0.0462
     33 C          60.0575   89.3719    8.8651 C.ar    1  UNL1       -0.0087
     34 C          60.5972   90.1002   10.0603 C.3     1  UNL1        0.0323
     35 C          59.5282   90.1435    7.6927 C.ar    1  UNL1       -0.0073
@<TRIPOS>BOND
     1    28    29    1
     2    29    30   ar
     3    30    31   ar
     4    31    32   ar
     5    32    24    1
     6    24    25   am
     7    25    26    2
     8     1    25    1
     9     1     2    1
    10     2     3    1
    11     3     4    1
    12     3     5    1
    13     5     6    1
    14     6     8    1
    15     8     9   ar
    16     9    10   ar
    17    10    11   ar
    18    13    11    1
    19    13    14    1
    20    14    15    1
    21    15    17    1
    22    17    18    1
    23    18    19    1
    24    18    20    1
    25    15    16    1
    26    11    12   ar
    27    12    21    1
    28    21    22    1
    29    22    23    1
    30    32    33   ar
    31    33    34    1
    32    33    35   ar
    33    35    29   ar
    34     6     1    1
    35    12     8   ar
    36    23    21    1
    37    16    13    1
    38    24    27    1
    39     4     7    1
