@<TRIPOS>MOLECULE
*****
 37 41 0 0 0
SMALL
GASTEIGER

@<TRIPOS>ATOM
      1 N          63.1153   91.0211   11.7185 N.am    1  UNL1       -0.2438
      2 C          63.5984   91.6915   10.4667 C.3     1  UNL1        0.1009
      3 C          64.7772   92.6176   10.5190 C.3     1  UNL1        0.0662
      4 C          65.4729   92.8733   11.8230 C.3     1  UNL1        0.1600
      5 O          64.9898   92.2028   13.0749 O.3     1  UNL1       -0.4374
      6 C          63.8109   91.2767   13.0227 C.2     1  UNL1        0.4051
      7 O          63.3278   90.6062   14.2744 O.2     1  UNL1       -0.2262
      8 C          66.2971   93.7367   10.9145 C.ar    1  UNL1        0.0138
      9 C          67.1604   93.1075    9.8615 C.ar    1  UNL1       -0.0010
     10 C          67.9845   93.9709    8.9530 C.ar    1  UNL1       -0.0002
     11 C          67.9453   95.4634    9.0976 C.ar    1  UNL1       -0.0000
     12 C          67.0821   96.0925   10.1506 C.ar    1  UNL1       -0.0002
     13 C          66.2579   95.2291   11.0591 C.ar    1  UNL1       -0.0010
     14 C          60.5439   90.6499   11.7185 C.3     1  UNL1        0.0265
     15 C          61.9364   90.0950   11.6662 C.3     1  UNL1        0.1011
     16 C          62.1502   88.6139   11.5616 C.ar    1  UNL1       -0.0042
     17 C          63.0589   87.9171   12.5305 C.ar    1  UNL1       -0.0027
     18 C          63.2727   86.4361   12.4258 C.ar    1  UNL1       -0.0002
     19 C          62.5778   85.6520   11.3524 C.ar    1  UNL1        0.0014
     20 C          61.6691   86.3489   10.3835 C.ar    1  UNL1       -0.0002
     21 C          61.4554   87.8298   10.4882 C.ar    1  UNL1       -0.0027
     22 C          62.7916   84.1710   11.2478 C.ar    1  UNL1        0.0175
     23 C          63.5658   83.6046   10.0946 C.ar    1  UNL1        0.0064
     24 C          63.7796   82.1235    9.9901 C.ar    1  UNL1        0.0608
     25 C          63.2192   81.2089   11.0386 C.ar    1  UNL1        0.2609
     26 O          63.4330   79.7280   10.9341 O.2     1  UNL1       -0.2670
     27 N          62.4450   81.7754   12.1918 N.ar    1  UNL1       -0.2960
     28 C          62.2312   83.2564   12.2964 C.ar    1  UNL1        0.0782
     29 C          61.8846   80.8609   13.2404 C.3     1  UNL1        0.0886
     30 C          62.0244   79.6554   14.1220 C.3     1  UNL1        0.0246
     31 C          60.7741   80.4823   14.1750 C.3     1  UNL1        0.0246
     32 C          66.4548   93.4288   12.8116 C.3     1  UNL1        0.0714
     33 C          67.1047   92.5216   13.8139 C.3     1  UNL1        0.0922
     34 C          67.7769   91.7734   12.7010 C.3     1  UNL1        0.0294
     35 C          66.4325   93.2696   14.9268 C.3     1  UNL1        0.0294
     36 O          67.7546   91.6143   14.8162 O.3     1  UNL1       -0.3866
     37 H          68.3044   90.9627   14.3537 H       1  UNL1        0.2102
@<TRIPOS>BOND
     1    15    14    1
     2    15    16    1
     3    16    17   ar
     4    17    18   ar
     5    18    19   ar
     6    19    22    1
     7    22    23   ar
     8    23    24   ar
     9    24    25   ar
    10    25    26    2
    11    25    27   ar
    12    27    29    1
    13    29    30    1
    14    30    31    1
    15    27    28   ar
    16    19    20   ar
    17    20    21   ar
    18    15     1    1
    19     1     2    1
    20     2     3    1
    21     3     4    1
    22     4    32    1
    23    32    33    1
    24    33    34    1
    25    33    35    1
    26    33    36    1
    27     4     8    1
    28     8     9   ar
    29     9    10   ar
    30    10    11   ar
    31    11    12   ar
    32    12    13   ar
    33     4     5    1
    34     5     6    1
    35     6     7    2
    36    21    16   ar
    37     6     1   am
    38    28    22   ar
    39    13     8   ar
    40    31    29    1
    41    36    37    1
@<TRIPOS>MOLECULE
*****
 37 41 0 0 0
SMALL
GASTEIGER

@<TRIPOS>ATOM
      1 N          63.2049   90.8680   11.5440 N.am    1  UNL1       -0.2438
      2 C          63.7051   91.5775   10.3208 C.3     1  UNL1        0.1009
      3 C          64.8183   92.5763   10.4356 C.3     1  UNL1        0.0662
      4 C          65.4313   92.8656   11.7737 C.3     1  UNL1        0.1600
      5 O          64.9311   92.1561   12.9970 O.3     1  UNL1       -0.4374
      6 C          63.8179   91.1573   12.8822 C.2     1  UNL1        0.4051
      7 O          63.3177   90.4478   14.1054 O.2     1  UNL1       -0.2262
      8 C          66.2422   93.7866   10.9110 C.ar    1  UNL1        0.0138
      9 C          67.1514   93.2229    9.8596 C.ar    1  UNL1       -0.0010
     10 C          67.9623   94.1439    8.9969 C.ar    1  UNL1       -0.0002
     11 C          67.8640   95.6287    9.1859 C.ar    1  UNL1       -0.0000
     12 C          66.9549   96.1925   10.2374 C.ar    1  UNL1       -0.0002
     13 C          66.1439   95.2714   11.1000 C.ar    1  UNL1       -0.0010
     14 C          60.7406   90.3045   10.9445 C.3     1  UNL1        0.0265
     15 C          62.0917   89.8692   11.4292 C.3     1  UNL1        0.1011
     16 C          62.3296   88.4351   11.7991 C.ar    1  UNL1       -0.0042
     17 C          61.5283   87.3489   11.1448 C.ar    1  UNL1       -0.0027
     18 C          61.7663   85.9149   11.5147 C.ar    1  UNL1       -0.0002
     19 C          62.8056   85.5670   12.5389 C.ar    1  UNL1        0.0014
     20 C          63.6070   86.6532   13.1931 C.ar    1  UNL1       -0.0002
     21 C          63.3690   88.0872   12.8232 C.ar    1  UNL1       -0.0027
     22 C          63.0436   84.1329   12.9088 C.ar    1  UNL1        0.0175
     23 C          63.4415   83.7759   14.3102 C.ar    1  UNL1        0.0064
     24 C          63.6795   82.3418   14.6801 C.ar    1  UNL1        0.0608
     25 C          63.5195   81.2647   13.6485 C.ar    1  UNL1        0.2609
     26 O          63.7575   79.8307   14.0183 O.2     1  UNL1       -0.2670
     27 N          63.1216   81.6218   12.2469 N.ar    1  UNL1       -0.2960
     28 C          62.8836   83.0558   11.8771 C.ar    1  UNL1        0.0782
     29 C          62.9616   80.5447   11.2153 C.3     1  UNL1        0.0886
     30 C          62.6706   79.1159   10.8633 C.3     1  UNL1        0.0246
     31 C          62.9757   80.1079    9.7804 C.3     1  UNL1        0.0246
     32 C          66.3260   93.4748   12.8122 C.3     1  UNL1        0.0714
     33 C          67.0247   92.5974   13.8082 C.3     1  UNL1        0.0922
     34 C          66.3277   93.3129   14.9274 C.3     1  UNL1        0.0294
     35 C          67.7216   91.8821   12.6891 C.3     1  UNL1        0.0294
     36 O          67.7233   91.7201   14.8043 O.3     1  UNL1       -0.3866
     37 H          67.4490   91.9672   15.7012 H       1  UNL1        0.2102
@<TRIPOS>BOND
     1    15    14    1
     2    15    16    1
     3    16    17   ar
     4    17    18   ar
     5    18    19   ar
     6    19    22    1
     7    22    23   ar
     8    23    24   ar
     9    24    25   ar
    10    25    26    2
    11    25    27   ar
    12    27    29    1
    13    29    30    1
    14    30    31    1
    15    27    28   ar
    16    19    20   ar
    17    20    21   ar
    18    15     1    1
    19     1     2    1
    20     2     3    1
    21     3     4    1
    22     4    32    1
    23    32    33    1
    24    33    34    1
    25    33    35    1
    26    33    36    1
    27     4     8    1
    28     8     9   ar
    29     9    10   ar
    30    10    11   ar
    31    11    12   ar
    32    12    13   ar
    33     4     5    1
    34     5     6    1
    35     6     7    2
    36    21    16   ar
    37     6     1   am
    38    28    22   ar
    39    13     8   ar
    40    31    29    1
    41    36    37    1
@<TRIPOS>MOLECULE
*****
 37 41 0 0 0
SMALL
GASTEIGER

@<TRIPOS>ATOM
      1 N          63.4979   90.3022   11.8531 N.am    1  UNL1       -0.2438
      2 C          64.1844   90.0794   13.1680 C.3     1  UNL1        0.1009
      3 C          65.2922   90.9937   13.6002 C.3     1  UNL1        0.0662
      4 C          65.7137   92.1307   12.7173 C.3     1  UNL1        0.1600
      5 O          65.0272   92.3536   11.4023 O.3     1  UNL1       -0.4374
      6 C          63.9193   91.4394   10.9702 C.2     1  UNL1        0.4051
      7 O          63.2329   91.6622    9.6553 O.2     1  UNL1       -0.2262
      8 C          66.6608   92.3264   13.8640 C.ar    1  UNL1        0.0138
      9 C          68.1350   92.1404   13.6592 C.ar    1  UNL1       -0.0010
     10 C          69.0821   92.3361   14.8059 C.ar    1  UNL1       -0.0002
     11 C          68.5548   92.7178   16.1573 C.ar    1  UNL1       -0.0000
     12 C          67.0805   92.9038   16.3621 C.ar    1  UNL1       -0.0002
     13 C          66.1335   92.7081   15.2154 C.ar    1  UNL1       -0.0010
     14 C          61.2208   89.9353   10.6572 C.3     1  UNL1        0.0265
     15 C          62.3900   89.3880   11.4210 C.3     1  UNL1        0.1011
     16 C          62.4513   87.9264   11.7527 C.ar    1  UNL1       -0.0042
     17 C          63.3570   87.4428   12.8463 C.ar    1  UNL1       -0.0027
     18 C          63.4183   85.9813   13.1780 C.ar    1  UNL1       -0.0002
     19 C          62.5739   85.0033   12.4161 C.ar    1  UNL1        0.0014
     20 C          61.6682   85.4868   11.3225 C.ar    1  UNL1       -0.0002
     21 C          61.6069   86.9483   10.9909 C.ar    1  UNL1       -0.0027
     22 C          62.6352   83.5416   12.7478 C.ar    1  UNL1        0.0175
     23 C          62.6368   83.0971   14.1804 C.ar    1  UNL1        0.0064
     24 C          62.6981   81.6355   14.5121 C.ar    1  UNL1        0.0608
     25 C          62.7579   80.6185   13.4112 C.ar    1  UNL1        0.2609
     26 O          62.8192   79.1569   13.7429 O.2     1  UNL1       -0.2670
     27 N          62.7564   81.0630   11.9786 N.ar    1  UNL1       -0.2960
     28 C          62.6951   82.5246   11.6469 C.ar    1  UNL1        0.0782
     29 C          62.8162   80.0460   10.8776 C.3     1  UNL1        0.0886
     30 C          62.8462   78.6140   10.4323 C.3     1  UNL1        0.0246
     31 C          62.8898   79.7165    9.4162 C.3     1  UNL1        0.0246
     32 C          66.4641   93.3358   12.2327 C.3     1  UNL1        0.0714
     33 C          66.4812   93.6708   10.7708 C.3     1  UNL1        0.0922
     34 C          65.7076   94.9255   11.0491 C.3     1  UNL1        0.0294
     35 C          67.2547   92.4162   10.4923 C.3     1  UNL1        0.0294
     36 O          66.4982   94.0059    9.3088 O.3     1  UNL1       -0.3866
     37 H          66.0303   94.8430    9.1634 H       1  UNL1        0.2102
@<TRIPOS>BOND
     1    15    14    1
     2    15    16    1
     3    16    17   ar
     4    17    18   ar
     5    18    19   ar
     6    19    22    1
     7    22    23   ar
     8    23    24   ar
     9    24    25   ar
    10    25    26    2
    11    25    27   ar
    12    27    29    1
    13    29    30    1
    14    30    31    1
    15    27    28   ar
    16    19    20   ar
    17    20    21   ar
    18    15     1    1
    19     1     2    1
    20     2     3    1
    21     3     4    1
    22     4    32    1
    23    32    33    1
    24    33    34    1
    25    33    35    1
    26    33    36    1
    27     4     8    1
    28     8     9   ar
    29     9    10   ar
    30    10    11   ar
    31    11    12   ar
    32    12    13   ar
    33     4     5    1
    34     5     6    1
    35     6     7    2
    36    21    16   ar
    37     6     1   am
    38    28    22   ar
    39    13     8   ar
    40    31    29    1
    41    36    37    1
@<TRIPOS>MOLECULE
*****
 37 41 0 0 0
SMALL
GASTEIGER

@<TRIPOS>ATOM
      1 N          63.5751   90.7840   11.9525 N.am    1  UNL1       -0.2438
      2 C          64.2900   90.6216   13.2611 C.3     1  UNL1        0.1009
      3 C          65.4988   91.4565   13.5640 C.3     1  UNL1        0.0662
      4 C          65.9928   92.4537   12.5583 C.3     1  UNL1        0.1600
      5 O          65.2779   92.6161   11.2496 O.3     1  UNL1       -0.4374
      6 C          64.0691   91.7813   10.9467 C.2     1  UNL1        0.4051
      7 O          63.3542   91.9437    9.6380 O.2     1  UNL1       -0.2262
      8 C          67.0008   92.6629   13.6492 C.ar    1  UNL1        0.0138
      9 C          66.6761   93.5570   14.8090 C.ar    1  UNL1       -0.0010
     10 C          67.6842   93.7662   15.8999 C.ar    1  UNL1       -0.0002
     11 C          69.0168   93.0812   15.8310 C.ar    1  UNL1       -0.0000
     12 C          69.3416   92.1871   14.6713 C.ar    1  UNL1       -0.0002
     13 C          68.3335   91.9779   13.5803 C.ar    1  UNL1       -0.0010
     14 C          61.0336   90.6061   11.4435 C.3     1  UNL1        0.0265
     15 C          62.3663   89.9492   11.6496 C.3     1  UNL1        0.1011
     16 C          62.4901   88.4574   11.5527 C.ar    1  UNL1       -0.0042
     17 C          61.9606   87.7375   10.3480 C.ar    1  UNL1       -0.0027
     18 C          62.0845   86.2458   10.2512 C.ar    1  UNL1       -0.0002
     19 C          62.7379   85.4740   11.3591 C.ar    1  UNL1        0.0014
     20 C          63.2675   86.1939   12.5638 C.ar    1  UNL1       -0.0002
     21 C          63.1436   87.6856   12.6606 C.ar    1  UNL1       -0.0027
     22 C          62.8618   83.9822   11.2622 C.ar    1  UNL1        0.0175
     23 C          63.5893   83.3636   10.1056 C.ar    1  UNL1        0.0064
     24 C          63.7132   81.8718   10.0087 C.ar    1  UNL1        0.0608
     25 C          63.1095   80.9987   11.0686 C.ar    1  UNL1        0.2609
     26 O          63.2333   79.5070   10.9718 O.2     1  UNL1       -0.2670
     27 N          62.3819   81.6174   12.2253 N.ar    1  UNL1       -0.2960
     28 C          62.2581   83.1091   12.3221 C.ar    1  UNL1        0.0782
     29 C          61.7782   80.7444   13.2852 C.3     1  UNL1        0.0886
     30 C          60.6445   80.4232   14.2133 C.3     1  UNL1        0.0246
     31 C          61.8664   79.5534   14.1927 C.3     1  UNL1        0.0246
     32 C          66.8369   93.5236   11.9314 C.3     1  UNL1        0.0714
     33 C          66.6627   93.8624   10.4806 C.3     1  UNL1        0.0922
     34 C          65.8411   95.0591   10.8587 C.3     1  UNL1        0.0294
     35 C          67.4843   92.6658   10.1025 C.3     1  UNL1        0.0294
     36 O          66.4886   94.2014    9.0298 O.3     1  UNL1       -0.3866
     37 H          65.9501   95.0040    8.9477 H       1  UNL1        0.2102
@<TRIPOS>BOND
     1    15    14    1
     2    15    16    1
     3    16    17   ar
     4    17    18   ar
     5    18    19   ar
     6    19    22    1
     7    22    23   ar
     8    23    24   ar
     9    24    25   ar
    10    25    26    2
    11    25    27   ar
    12    27    29    1
    13    29    30    1
    14    30    31    1
    15    27    28   ar
    16    19    20   ar
    17    20    21   ar
    18    15     1    1
    19     1     2    1
    20     2     3    1
    21     3     4    1
    22     4    32    1
    23    32    33    1
    24    33    34    1
    25    33    35    1
    26    33    36    1
    27     4     8    1
    28     8     9   ar
    29     9    10   ar
    30    10    11   ar
    31    11    12   ar
    32    12    13   ar
    33     4     5    1
    34     5     6    1
    35     6     7    2
    36    21    16   ar
    37     6     1   am
    38    28    22   ar
    39    13     8   ar
    40    31    29    1
    41    36    37    1
