@<TRIPOS>MOLECULE
*****
 45 48 0 0 0
SMALL
GASTEIGER

@<TRIPOS>ATOM
      1 N          62.0462   89.4911   12.1040 N.3     1  UNL1       -0.2699
      2 C          62.4604   90.0819   13.4190 C.3     1  UNL1        0.0924
      3 C          63.9125   90.3197   13.7104 C.3     1  UNL1        0.0950
      4 N          64.7593   91.0783   12.7319 N.am    1  UNL1       -0.2706
      5 C          65.5556   92.2639   13.1906 C.2     1  UNL1        0.4020
      6 O          65.5050   92.6908   14.6276 O.2     1  UNL1       -0.2264
      7 H          64.7925   90.7981   11.7887 H       1  UNL1        0.1527
      8 O          66.4024   93.0226   12.2121 O.3     1  UNL1       -0.4274
      9 C          66.2252   94.5040   12.0577 C.3     1  UNL1        0.2621
     10 C          66.6411   95.1805   10.7852 C.ar    1  UNL1        0.1323
     11 N          67.5392   94.6024    9.7320 N.ar    1  UNL1       -0.2374
     12 C          67.6850   95.6184    8.6382 C.ar    1  UNL1        0.1062
     13 C          66.8769   96.8246    9.0154 C.ar    1  UNL1        0.0573
     14 S          66.2317   96.5540   10.3422 S.2     1  UNL1       -0.0666
     15 C          64.5178   89.7988   14.9802 C.3     1  UNL1        0.0474
     16 C          64.0671   88.4827   15.5411 C.ar    1  UNL1       -0.0205
     17 C          63.2198   88.4454   16.7784 C.ar    1  UNL1       -0.0042
     18 C          62.7690   87.1293   17.3393 C.ar    1  UNL1       -0.0003
     19 C          63.1656   85.8505   16.6631 C.ar    1  UNL1       -0.0000
     20 C          64.0129   85.8877   15.4259 C.ar    1  UNL1       -0.0003
     21 C          64.4637   87.2038   14.8649 C.ar    1  UNL1       -0.0042
     22 C          62.6971   88.2338   11.6084 C.3     1  UNL1        0.0924
     23 C          61.9908   87.3678   10.6078 C.3     1  UNL1        0.0950
     24 N          61.7705   87.8641    9.2095 N.am    1  UNL1       -0.2706
     25 C          60.3850   87.8995    8.6357 C.2     1  UNL1        0.4020
     26 O          59.2198   87.4386    9.4602 O.2     1  UNL1       -0.2264
     27 H          62.5353   88.1666    8.6683 H       1  UNL1        0.1527
     28 O          60.1647   88.3957    7.2375 O.3     1  UNL1       -0.4291
     29 C          58.8811   89.0842    6.8795 C.3     1  UNL1        0.2447
     30 C          58.8904   90.2360    5.9185 C.ar    1  UNL1        0.0714
     31 C          57.6844   90.9627    5.4015 C.ar    1  UNL1        0.1053
     32 N          58.1560   92.0391    4.4693 N.ar    1  UNL1       -0.2350
     33 C          59.6536   91.9777    4.4103 C.ar    1  UNL1        0.1343
     34 S          60.1075   90.8633    5.3060 S.2     1  UNL1       -0.0652
     35 C          61.5047   86.0056   11.0055 C.3     1  UNL1        0.0474
     36 C          62.4796   84.8754   11.1543 C.ar    1  UNL1       -0.0205
     37 C          62.7098   84.2559   12.5009 C.ar    1  UNL1       -0.0042
     38 C          63.6847   83.1257   12.6497 C.ar    1  UNL1       -0.0003
     39 C          64.4294   82.6149   11.4520 C.ar    1  UNL1       -0.0000
     40 C          64.1992   83.2343   10.1055 C.ar    1  UNL1       -0.0003
     41 C          63.2243   84.3646    9.9566 C.ar    1  UNL1       -0.0042
     42 C          60.9813   90.1575   11.2845 C.3     1  UNL1        0.0721
     43 C          58.9995   88.9763   12.4793 C.3     1  UNL1        0.0014
     44 C          59.5614   90.1716   11.7683 C.3     1  UNL1        0.0160
     45 C          58.7036   91.3809   11.5409 C.3     1  UNL1        0.0014
@<TRIPOS>BOND
     1    43    44    1
     2    44    45    1
     3    44    42    1
     4    42     1    1
     5     1    22    1
     6    23    22    1
     7    23    35    1
     8    35    36    1
     9    36    37   ar
    10    37    38   ar
    11    38    39   ar
    12    39    40   ar
    13    40    41   ar
    14    23    24    1
    15    24    25   am
    16    25    26    2
    17    25    28    1
    18    28    29    1
    19    29    30    1
    20    30    31   ar
    21    31    32   ar
    22    32    33   ar
    23    33    34   ar
    24     1     2    1
    25     3     2    1
    26     3    15    1
    27    15    16    1
    28    16    17   ar
    29    17    18   ar
    30    18    19   ar
    31    19    20   ar
    32    20    21   ar
    33     3     4    1
    34     4     5   am
    35     5     6    2
    36     5     8    1
    37     8     9    1
    38     9    10    1
    39    10    11   ar
    40    11    12   ar
    41    12    13   ar
    42    13    14   ar
    43    41    36   ar
    44    34    30   ar
    45    21    16   ar
    46    14    10   ar
    47    24    27    1
    48     4     7    1
@<TRIPOS>MOLECULE
*****
 45 48 0 0 0
SMALL
GASTEIGER

@<TRIPOS>ATOM
      1 N          62.1595   89.4948   12.1079 N.3     1  UNL1       -0.2699
      2 C          62.7560   88.2058   11.6255 C.3     1  UNL1        0.0924
      3 C          62.0070   87.3535   10.6444 C.3     1  UNL1        0.0950
      4 N          61.7454   87.8605    9.2571 N.am    1  UNL1       -0.2706
      5 C          60.3776   87.7283    8.6558 C.2     1  UNL1        0.4020
      6 O          59.2715   87.0891    9.4418 O.2     1  UNL1       -0.2264
      7 H          62.4714   88.2800    8.7413 H       1  UNL1        0.1527
      8 O          60.1160   88.2352    7.2686 O.3     1  UNL1       -0.4274
      9 C          58.9835   89.1865    7.0188 C.3     1  UNL1        0.2621
     10 C          59.1179   90.2550    5.9747 C.ar    1  UNL1        0.1323
     11 N          60.4020   90.7416    5.3713 N.ar    1  UNL1       -0.2374
     12 C          60.0695   91.8118    4.3743 C.ar    1  UNL1        0.1062
     13 C          58.5798   91.9868    4.3615 C.ar    1  UNL1        0.0573
     14 S          57.9916   91.0246    5.3506 S.2     1  UNL1       -0.0666
     15 C          61.5196   85.9942   11.0505 C.3     1  UNL1        0.0474
     16 C          62.4967   84.8709   11.2336 C.ar    1  UNL1       -0.0205
     17 C          63.2079   84.2944   10.0453 C.ar    1  UNL1       -0.0042
     18 C          64.1849   83.1711   10.2283 C.ar    1  UNL1       -0.0003
     19 C          64.4508   82.6242   11.5996 C.ar    1  UNL1       -0.0000
     20 C          63.7397   83.2007   12.7878 C.ar    1  UNL1       -0.0003
     21 C          62.7626   84.3241   12.6048 C.ar    1  UNL1       -0.0042
     22 C          62.6395   90.1104   13.3887 C.3     1  UNL1        0.0924
     23 C          64.0982   90.4032   13.5797 C.3     1  UNL1        0.0950
     24 N          64.7597   91.4781   12.7693 N.am    1  UNL1       -0.2706
     25 C          65.4661   92.6086   13.4571 C.2     1  UNL1        0.4020
     26 O          65.5110   92.6641   14.9554 O.2     1  UNL1       -0.2264
     27 H          64.7303   91.4418   11.7859 H       1  UNL1        0.1527
     28 O          66.1276   93.6835   12.6467 O.3     1  UNL1       -0.4291
     29 C          65.7983   93.8354   11.1912 C.3     1  UNL1        0.2447
     30 C          66.8272   93.5044   10.1510 C.ar    1  UNL1        0.0714
     31 C          67.1322   94.3121    8.9243 C.ar    1  UNL1        0.1053
     32 N          68.2251   93.6145    8.1700 N.ar    1  UNL1       -0.2350
     33 C          68.5955   92.3757    8.9305 C.ar    1  UNL1        0.1343
     34 S          67.7315   92.3077   10.1548 S.2     1  UNL1       -0.0652
     35 C          64.8954   89.6210   14.5811 C.3     1  UNL1        0.0474
     36 C          64.2561   88.4889   15.3291 C.ar    1  UNL1       -0.0205
     37 C          64.4769   87.0744   14.8811 C.ar    1  UNL1       -0.0042
     38 C          63.8377   85.9423   15.6291 C.ar    1  UNL1       -0.0003
     39 C          62.9776   86.2245   16.8252 C.ar    1  UNL1       -0.0000
     40 C          62.7567   87.6389   17.2732 C.ar    1  UNL1       -0.0003
     41 C          63.3960   88.7711   16.5252 C.ar    1  UNL1       -0.0042
     42 C          61.0830   90.1682   11.3094 C.3     1  UNL1        0.0721
     43 C          59.1405   88.8924   12.4711 C.3     1  UNL1        0.0014
     44 C          59.6588   90.1174   11.7777 C.3     1  UNL1        0.0160
     45 C          58.7530   91.2916   11.5526 C.3     1  UNL1        0.0014
@<TRIPOS>BOND
     1    43    44    1
     2    44    45    1
     3    44    42    1
     4    42     1    1
     5     1    22    1
     6    23    22    1
     7    23    35    1
     8    35    36    1
     9    36    37   ar
    10    37    38   ar
    11    38    39   ar
    12    39    40   ar
    13    40    41   ar
    14    23    24    1
    15    24    25   am
    16    25    26    2
    17    25    28    1
    18    28    29    1
    19    29    30    1
    20    30    31   ar
    21    31    32   ar
    22    32    33   ar
    23    33    34   ar
    24     1     2    1
    25     3     2    1
    26     3    15    1
    27    15    16    1
    28    16    17   ar
    29    17    18   ar
    30    18    19   ar
    31    19    20   ar
    32    20    21   ar
    33     3     4    1
    34     4     5   am
    35     5     6    2
    36     5     8    1
    37     8     9    1
    38     9    10    1
    39    10    11   ar
    40    11    12   ar
    41    12    13   ar
    42    13    14   ar
    43    41    36   ar
    44    34    30   ar
    45    21    16   ar
    46    14    10   ar
    47    24    27    1
    48     4     7    1
@<TRIPOS>MOLECULE
*****
 45 48 0 0 0
SMALL
GASTEIGER

@<TRIPOS>ATOM
      1 N          62.4998   89.6047   11.5807 N.3     1  UNL1       -0.2699
      2 C          62.5906   90.1255   12.9844 C.3     1  UNL1        0.0924
      3 C          63.8958   90.6474   13.5079 C.3     1  UNL1        0.0950
      4 N          64.8073   91.4268   12.6070 N.am    1  UNL1       -0.2706
      5 C          65.6842   92.5025   13.1761 C.2     1  UNL1        0.4020
      6 O          65.6494   92.7989   14.6461 O.2     1  UNL1       -0.2264
      7 H          64.8301   91.2323   11.6422 H       1  UNL1        0.1527
      8 O          66.5957   93.2820   12.2752 O.3     1  UNL1       -0.4274
      9 C          66.2487   94.6905   11.8940 C.3     1  UNL1        0.2621
     10 C          66.7014   95.2438   10.5752 C.ar    1  UNL1        0.1323
     11 N          66.8521   96.6965   10.2336 N.ar    1  UNL1       -0.2374
     12 C          67.3267   96.7920    8.8138 C.ar    1  UNL1        0.1062
     13 C          67.4693   95.3983    8.2780 C.ar    1  UNL1        0.0573
     14 S          67.0828   94.4413    9.3666 S.2     1  UNL1       -0.0666
     15 C          64.2895   90.3899   14.9322 C.3     1  UNL1        0.0474
     16 C          63.9741   89.0697   15.5706 C.ar    1  UNL1       -0.0205
     17 C          64.5387   87.8046   14.9954 C.ar    1  UNL1       -0.0042
     18 C          64.2233   86.4843   15.6338 C.ar    1  UNL1       -0.0003
     19 C          63.3433   86.4292   16.8472 C.ar    1  UNL1       -0.0000
     20 C          62.7787   87.6942   17.4224 C.ar    1  UNL1       -0.0003
     21 C          63.0941   89.0145   16.7841 C.ar    1  UNL1       -0.0042
     22 C          63.1037   88.2763   11.2331 C.3     1  UNL1        0.0924
     23 C          62.4034   87.0088   11.6242 C.3     1  UNL1        0.0950
     24 N          62.8973   86.2091   12.7931 N.am    1  UNL1       -0.2706
     25 C          63.4330   84.8240   12.5817 C.2     1  UNL1        0.4020
     26 O          63.4749   84.2387   11.2013 O.2     1  UNL1       -0.2264
     27 H          62.8698   86.5932   13.6992 H       1  UNL1        0.1527
     28 O          63.9269   84.0243   13.7506 O.3     1  UNL1       -0.4291
     29 C          62.9633   83.2132   14.5653 C.3     1  UNL1        0.2447
     30 C          62.5062   81.8728   14.0709 C.ar    1  UNL1        0.0714
     31 C          61.1554   81.2621   14.3003 C.ar    1  UNL1        0.1053
     32 N          61.1340   79.9196   13.6317 N.ar    1  UNL1       -0.2350
     33 C          62.4716   79.7005   12.9890 C.ar    1  UNL1        0.1343
     34 S          63.3196   80.9076   13.2605 S.2     1  UNL1       -0.0652
     35 C          61.2093   86.5409   10.8462 C.3     1  UNL1        0.0474
     36 C          61.3778   86.0405    9.4423 C.ar    1  UNL1       -0.0205
     37 C          60.2224   86.0841    8.4866 C.ar    1  UNL1       -0.0042
     38 C          60.3910   85.5837    7.0827 C.ar    1  UNL1       -0.0003
     39 C          61.7150   85.0396    6.6343 C.ar    1  UNL1       -0.0000
     40 C          62.8704   84.9960    7.5898 C.ar    1  UNL1       -0.0003
     41 C          62.7018   85.4964    8.9939 C.ar    1  UNL1       -0.0042
     42 C          61.8053   90.4121   10.5245 C.3     1  UNL1        0.0721
     43 C          59.3214   90.5973   11.2636 C.3     1  UNL1        0.0014
     44 C          60.3477   90.1903   10.2482 C.3     1  UNL1        0.0160
     45 C          59.9165   89.5613    8.9565 C.3     1  UNL1        0.0014
@<TRIPOS>BOND
     1    43    44    1
     2    44    45    1
     3    44    42    1
     4    42     1    1
     5     1    22    1
     6    23    22    1
     7    23    35    1
     8    35    36    1
     9    36    37   ar
    10    37    38   ar
    11    38    39   ar
    12    39    40   ar
    13    40    41   ar
    14    23    24    1
    15    24    25   am
    16    25    26    2
    17    25    28    1
    18    28    29    1
    19    29    30    1
    20    30    31   ar
    21    31    32   ar
    22    32    33   ar
    23    33    34   ar
    24     1     2    1
    25     3     2    1
    26     3    15    1
    27    15    16    1
    28    16    17   ar
    29    17    18   ar
    30    18    19   ar
    31    19    20   ar
    32    20    21   ar
    33     3     4    1
    34     4     5   am
    35     5     6    2
    36     5     8    1
    37     8     9    1
    38     9    10    1
    39    10    11   ar
    40    11    12   ar
    41    12    13   ar
    42    13    14   ar
    43    41    36   ar
    44    34    30   ar
    45    21    16   ar
    46    14    10   ar
    47    24    27    1
    48     4     7    1
@<TRIPOS>MOLECULE
*****
 45 48 0 0 0
SMALL
GASTEIGER

@<TRIPOS>ATOM
      1 N          62.5930   90.0970   10.9214 N.3     1  UNL1       -0.2699
      2 C          63.4690   91.2650   10.5772 C.3     1  UNL1        0.0924
      3 C          64.5028   91.7408   11.5543 C.3     1  UNL1        0.0950
      4 N          64.1141   92.0378   12.9723 N.am    1  UNL1       -0.2706
      5 C          64.0931   90.9366   13.9906 C.2     1  UNL1        0.4020
      6 O          64.4608   89.5385   13.5908 O.2     1  UNL1       -0.2264
      7 H          63.8727   92.9555   13.2346 H       1  UNL1        0.1527
      8 O          63.7044   91.2337   15.4085 O.3     1  UNL1       -0.4274
      9 C          64.6832   91.8973   16.3312 C.3     1  UNL1        0.2621
     10 C          65.9072   92.5618   15.7741 C.ar    1  UNL1        0.1323
     11 N          65.9380   93.5490   14.6452 N.ar    1  UNL1       -0.2374
     12 C          67.3651   93.9531   14.4215 C.ar    1  UNL1        0.1062
     13 C          68.2164   93.2156   15.4121 C.ar    1  UNL1        0.0573
     14 S          67.3154   92.3557   16.2482 S.2     1  UNL1       -0.0666
     15 C          65.9254   91.9196   11.1134 C.3     1  UNL1        0.0474
     16 C          66.3742   93.2318   10.5419 C.ar    1  UNL1       -0.0205
     17 C          67.4860   93.2706    9.5356 C.ar    1  UNL1       -0.0042
     18 C          67.9348   94.5827    8.9641 C.ar    1  UNL1       -0.0003
     19 C          67.2719   95.8562    9.3987 C.ar    1  UNL1       -0.0000
     20 C          66.1601   95.8174   10.4049 C.ar    1  UNL1       -0.0003
     21 C          65.7113   94.5052   10.9765 C.ar    1  UNL1       -0.0042
     22 C          62.9854   88.7137   10.4944 C.3     1  UNL1        0.0924
     23 C          62.4620   87.5219   11.2397 C.3     1  UNL1        0.0950
     24 N          63.0889   87.1162   12.5406 N.am    1  UNL1       -0.2706
     25 C          63.2086   85.6635   12.8947 C.2     1  UNL1        0.4020
     26 O          62.7014   84.6165   11.9478 O.2     1  UNL1       -0.2264
     27 H          63.4218   87.8034   13.1621 H       1  UNL1        0.1527
     28 O          63.8355   85.2578   14.1955 O.3     1  UNL1       -0.4291
     29 C          64.3765   83.8692   14.3666 C.3     1  UNL1        0.2447
     30 C          63.4841   82.6840   14.1449 C.ar    1  UNL1        0.0714
     31 C          62.1025   82.5044   14.7007 C.ar    1  UNL1        0.1053
     32 N          61.5812   81.1798   14.2279 N.ar    1  UNL1       -0.2350
     33 C          62.6406   80.5408   13.3797 C.ar    1  UNL1        0.1343
     34 S          63.8167   81.4704   13.3285 S.2     1  UNL1       -0.0652
     35 C          61.3115   86.7358   10.6841 C.3     1  UNL1        0.0474
     36 C          61.4088   86.1295    9.3156 C.ar    1  UNL1       -0.0205
     37 C          60.2178   86.1411    8.4037 C.ar    1  UNL1       -0.0042
     38 C          60.3151   85.5348    7.0352 C.ar    1  UNL1       -0.0003
     39 C          61.6033   84.9170    6.5784 C.ar    1  UNL1       -0.0000
     40 C          62.7943   84.9054    7.4902 C.ar    1  UNL1       -0.0003
     41 C          62.6971   85.5117    8.8588 C.ar    1  UNL1       -0.0042
     42 C          61.3246   90.3124   11.6925 C.3     1  UNL1        0.0721
     43 C          59.9091   89.8590    9.5616 C.3     1  UNL1        0.0014
     44 C          60.0080   90.3517   10.9748 C.3     1  UNL1        0.0160
     45 C          58.7902   90.8838   11.6705 C.3     1  UNL1        0.0014
@<TRIPOS>BOND
     1    43    44    1
     2    44    45    1
     3    44    42    1
     4    42     1    1
     5     1    22    1
     6    23    22    1
     7    23    35    1
     8    35    36    1
     9    36    37   ar
    10    37    38   ar
    11    38    39   ar
    12    39    40   ar
    13    40    41   ar
    14    23    24    1
    15    24    25   am
    16    25    26    2
    17    25    28    1
    18    28    29    1
    19    29    30    1
    20    30    31   ar
    21    31    32   ar
    22    32    33   ar
    23    33    34   ar
    24     1     2    1
    25     3     2    1
    26     3    15    1
    27    15    16    1
    28    16    17   ar
    29    17    18   ar
    30    18    19   ar
    31    19    20   ar
    32    20    21   ar
    33     3     4    1
    34     4     5   am
    35     5     6    2
    36     5     8    1
    37     8     9    1
    38     9    10    1
    39    10    11   ar
    40    11    12   ar
    41    12    13   ar
    42    13    14   ar
    43    41    36   ar
    44    34    30   ar
    45    21    16   ar
    46    14    10   ar
    47    24    27    1
    48     4     7    1
@<TRIPOS>MOLECULE
*****
 45 48 0 0 0
SMALL
GASTEIGER

@<TRIPOS>ATOM
      1 N          62.3624   85.8873   12.0894 N.3     1  UNL1       -0.2699
      2 C          62.1127   85.3338   13.4610 C.3     1  UNL1        0.0924
      3 C          63.2363   85.2473   14.4509 C.3     1  UNL1        0.0950
      4 N          63.6294   86.4563   15.2469 N.am    1  UNL1       -0.2706
      5 C          62.8741   86.8118   16.4932 C.2     1  UNL1        0.4020
      6 O          61.7258   85.9582   16.9433 O.2     1  UNL1       -0.2264
      7 H          64.3831   87.0165   14.9514 H       1  UNL1        0.1527
      8 O          63.2672   88.0208   17.2892 O.3     1  UNL1       -0.4274
      9 C          62.9243   89.3925   16.7884 C.3     1  UNL1        0.2621
     10 C          63.9236   90.1682   15.9825 C.ar    1  UNL1        0.1323
     11 N          64.7113   89.6475   14.8169 N.ar    1  UNL1       -0.2374
     12 C          65.5852   90.7584   14.3147 C.ar    1  UNL1        0.1062
     13 C          65.3377   91.9656   15.1698 C.ar    1  UNL1        0.0573
     14 S          64.3108   91.6010   16.2006 S.2     1  UNL1       -0.0666
     15 C          63.9670   83.9516   14.6447 C.3     1  UNL1        0.0474
     16 C          63.3849   82.6755   14.1130 C.ar    1  UNL1       -0.0205
     17 C          64.0848   81.9328   13.0136 C.ar    1  UNL1       -0.0042
     18 C          63.5028   80.6567   12.4819 C.ar    1  UNL1       -0.0003
     19 C          62.2209   80.1233   13.0495 C.ar    1  UNL1       -0.0000
     20 C          61.5210   80.8659   14.1488 C.ar    1  UNL1       -0.0003
     21 C          62.1030   82.1421   14.6806 C.ar    1  UNL1       -0.0042
     22 C          62.9899   87.2402   11.9293 C.3     1  UNL1        0.0924
     23 C          62.2999   88.2957   11.1171 C.3     1  UNL1        0.0950
     24 N          63.1018   89.3779   10.4571 N.am    1  UNL1       -0.2706
     25 C          63.2992   90.6937   11.1498 C.2     1  UNL1        0.4020
     26 O          62.6945   90.9272   12.5025 O.2     1  UNL1       -0.2264
     27 H          63.4987   89.2247    9.5692 H       1  UNL1        0.1527
     28 O          64.1011   91.7759   10.4898 O.3     1  UNL1       -0.4291
     29 C          65.1887   92.4739   11.2513 C.3     1  UNL1        0.2447
     30 C          66.3799   93.0234   10.5238 C.ar    1  UNL1        0.0714
     31 C          67.6700   92.3007   10.2724 C.ar    1  UNL1        0.1053
     32 N          68.5775   93.2226    9.5131 N.ar    1  UNL1       -0.2350
     33 C          67.8482   94.5152    9.2953 C.ar    1  UNL1        0.1343
     34 S          66.4900   94.3921    9.9200 S.2     1  UNL1       -0.0652
     35 C          60.8078   88.2689   10.9648 C.3     1  UNL1        0.0474
     36 C          60.1950   88.1690    9.5994 C.ar    1  UNL1       -0.0205
     37 C          60.1668   89.3695    8.7003 C.ar    1  UNL1       -0.0042
     38 C          59.5539   89.2696    7.3349 C.ar    1  UNL1       -0.0003
     39 C          58.9693   87.9693    6.8685 C.ar    1  UNL1       -0.0000
     40 C          58.9974   86.7690    7.7675 C.ar    1  UNL1       -0.0003
     41 C          59.6103   86.8688    9.1330 C.ar    1  UNL1       -0.0042
     42 C          61.9846   85.0877   10.8778 C.3     1  UNL1        0.0721
     43 C          64.0024   83.6966   10.0156 C.3     1  UNL1        0.0014
     44 C          63.0078   84.8020    9.8187 C.3     1  UNL1        0.0160
     45 C          63.0363   85.6217    8.5628 C.3     1  UNL1        0.0014
@<TRIPOS>BOND
     1    43    44    1
     2    44    45    1
     3    44    42    1
     4    42     1    1
     5     1    22    1
     6    23    22    1
     7    23    35    1
     8    35    36    1
     9    36    37   ar
    10    37    38   ar
    11    38    39   ar
    12    39    40   ar
    13    40    41   ar
    14    23    24    1
    15    24    25   am
    16    25    26    2
    17    25    28    1
    18    28    29    1
    19    29    30    1
    20    30    31   ar
    21    31    32   ar
    22    32    33   ar
    23    33    34   ar
    24     1     2    1
    25     3     2    1
    26     3    15    1
    27    15    16    1
    28    16    17   ar
    29    17    18   ar
    30    18    19   ar
    31    19    20   ar
    32    20    21   ar
    33     3     4    1
    34     4     5   am
    35     5     6    2
    36     5     8    1
    37     8     9    1
    38     9    10    1
    39    10    11   ar
    40    11    12   ar
    41    12    13   ar
    42    13    14   ar
    43    41    36   ar
    44    34    30   ar
    45    21    16   ar
    46    14    10   ar
    47    24    27    1
    48     4     7    1
@<TRIPOS>MOLECULE
*****
 45 48 0 0 0
SMALL
GASTEIGER

@<TRIPOS>ATOM
      1 N          64.1410   87.7789   14.3788 N.3     1  UNL1       -0.2699
      2 C          63.8607   87.2542   13.0018 C.3     1  UNL1        0.0924
      3 C          63.1459   85.9469   12.8285 C.3     1  UNL1        0.0950
      4 N          63.7459   84.6857   13.3755 N.am    1  UNL1       -0.2706
      5 C          63.0509   83.9405   14.4763 C.2     1  UNL1        0.4020
      6 O          61.7560   84.4566   15.0301 O.2     1  UNL1       -0.2264
      7 H          64.5958   84.3469   13.0120 H       1  UNL1        0.1527
      8 O          63.6510   82.6793   15.0233 O.3     1  UNL1       -0.4274
      9 C          63.6366   81.4242   14.2020 C.3     1  UNL1        0.2621
     10 C          63.6726   81.5073   12.7047 C.ar    1  UNL1        0.1323
     11 N          64.6150   82.3432   11.8904 N.ar    1  UNL1       -0.2374
     12 C          64.2973   82.1215   10.4413 C.ar    1  UNL1        0.1062
     13 C          63.1585   81.1487   10.3600 C.ar    1  UNL1        0.0573
     14 S          62.7723   80.7690   11.7588 S.2     1  UNL1       -0.0666
     15 C          61.8309   85.9009   12.1081 C.3     1  UNL1        0.0474
     16 C          61.7986   85.8035   10.6116 C.ar    1  UNL1       -0.0205
     17 C          62.9673   85.2223    9.8724 C.ar    1  UNL1       -0.0042
     18 C          62.9350   85.1250    8.3759 C.ar    1  UNL1       -0.0003
     19 C          61.7340   85.6088    7.6186 C.ar    1  UNL1       -0.0000
     20 C          60.5653   86.1900    8.3578 C.ar    1  UNL1       -0.0003
     21 C          60.5976   86.2874    9.8543 C.ar    1  UNL1       -0.0042
     22 C          64.6385   89.1823   14.5597 C.3     1  UNL1        0.0924
     23 C          64.1071   90.2842   13.6917 C.3     1  UNL1        0.0950
     24 N          65.0537   91.2476   13.0392 N.am    1  UNL1       -0.2706
     25 C          65.7059   92.3257   13.8529 C.2     1  UNL1        0.4020
     26 O          65.4116   92.4405   15.3193 O.2     1  UNL1       -0.2264
     27 H          65.2468   91.1723   12.0767 H       1  UNL1        0.1527
     28 O          66.6525   93.2891   13.2004 O.3     1  UNL1       -0.4291
     29 C          66.1637   94.2020   12.1151 C.3     1  UNL1        0.2447
     30 C          66.7911   94.1515   10.7535 C.ar    1  UNL1        0.0714
     31 C          67.3914   92.9401   10.1037 C.ar    1  UNL1        0.1053
     32 N          67.8997   93.3433    8.7513 N.ar    1  UNL1       -0.2350
     33 C          67.6134   94.8040    8.5652 C.ar    1  UNL1        0.1343
     34 S          66.9283   95.3034    9.8026 S.2     1  UNL1       -0.0652
     35 C          62.6291   90.4227   13.4763 C.3     1  UNL1        0.0474
     36 C          62.0387   90.1447   12.1257 C.ar    1  UNL1       -0.0205
     37 C          62.9367   89.8498   10.9609 C.ar    1  UNL1       -0.0042
     38 C          62.3463   89.5718    9.6103 C.ar    1  UNL1       -0.0003
     39 C          60.8580   89.5888    9.4245 C.ar    1  UNL1       -0.0000
     40 C          59.9600   89.8837   10.5892 C.ar    1  UNL1       -0.0003
     41 C          60.5504   90.1617   11.9399 C.ar    1  UNL1       -0.0042
     42 C          63.9237   86.9002   15.5749 C.3     1  UNL1        0.0721
     43 C          62.6469   86.4809   17.7985 C.3     1  UNL1        0.0014
     44 C          63.1894   87.4296   16.7710 C.3     1  UNL1        0.0160
     45 C          62.9975   88.9077   16.9396 C.3     1  UNL1        0.0014
@<TRIPOS>BOND
     1    43    44    1
     2    44    45    1
     3    44    42    1
     4    42     1    1
     5     1    22    1
     6    23    22    1
     7    23    35    1
     8    35    36    1
     9    36    37   ar
    10    37    38   ar
    11    38    39   ar
    12    39    40   ar
    13    40    41   ar
    14    23    24    1
    15    24    25   am
    16    25    26    2
    17    25    28    1
    18    28    29    1
    19    29    30    1
    20    30    31   ar
    21    31    32   ar
    22    32    33   ar
    23    33    34   ar
    24     1     2    1
    25     3     2    1
    26     3    15    1
    27    15    16    1
    28    16    17   ar
    29    17    18   ar
    30    18    19   ar
    31    19    20   ar
    32    20    21   ar
    33     3     4    1
    34     4     5   am
    35     5     6    2
    36     5     8    1
    37     8     9    1
    38     9    10    1
    39    10    11   ar
    40    11    12   ar
    41    12    13   ar
    42    13    14   ar
    43    41    36   ar
    44    34    30   ar
    45    21    16   ar
    46    14    10   ar
    47    24    27    1
    48     4     7    1
@<TRIPOS>MOLECULE
*****
 45 48 0 0 0
SMALL
GASTEIGER

@<TRIPOS>ATOM
      1 N          62.3919   86.0411   11.4739 N.3     1  UNL1       -0.2699
      2 C          62.3999   85.6206   12.9137 C.3     1  UNL1        0.0924
      3 C          63.6287   84.9969   13.5061 C.3     1  UNL1        0.0950
      4 N          63.8781   83.5271   13.3405 N.am    1  UNL1       -0.2706
      5 C          63.4431   82.5676   14.4082 C.2     1  UNL1        0.4020
      6 O          62.7587   83.0779   15.6415 O.2     1  UNL1       -0.2264
      7 H          64.3273   83.1922   12.5310 H       1  UNL1        0.1527
      8 O          63.6925   81.0978   14.2426 O.3     1  UNL1       -0.4274
      9 C          62.6397   80.2229   13.6292 C.3     1  UNL1        0.2621
     10 C          62.7191   79.8603   12.1759 C.ar    1  UNL1        0.1323
     11 N          62.5614   78.4840   11.6006 N.ar    1  UNL1       -0.2374
     12 C          62.7150   78.5835   10.1118 C.ar    1  UNL1        0.1062
     13 C          62.9676   80.0213    9.7669 C.ar    1  UNL1        0.0573
     14 S          62.9702   80.8105   11.0426 S.2     1  UNL1       -0.0666
     15 C          64.6082   85.8431   14.2641 C.3     1  UNL1        0.0474
     16 C          64.1170   86.9614   15.1348 C.ar    1  UNL1       -0.0205
     17 C          64.3190   88.3861   14.7111 C.ar    1  UNL1       -0.0042
     18 C          63.8277   89.5043   15.5818 C.ar    1  UNL1       -0.0003
     19 C          63.1344   89.1980   16.8762 C.ar    1  UNL1       -0.0000
     20 C          62.9323   87.7734   17.2999 C.ar    1  UNL1       -0.0003
     21 C          63.4236   86.6550   16.4292 C.ar    1  UNL1       -0.0042
     22 C          62.7198   87.4574   11.1043 C.3     1  UNL1        0.0924
     23 C          61.8473   88.5790   11.5845 C.3     1  UNL1        0.0950
     24 N          62.4190   89.6494   12.4661 N.am    1  UNL1       -0.2706
     25 C          63.2269   90.7623   11.8670 C.2     1  UNL1        0.4020
     26 O          63.4630   90.8048   10.3864 O.2     1  UNL1       -0.2264
     27 H          62.2641   89.6215   13.4379 H       1  UNL1        0.1527
     28 O          63.7987   91.8327   12.7487 O.3     1  UNL1       -0.4291
     29 C          65.2848   92.0152   12.8393 C.3     1  UNL1        0.2447
     30 C          65.9868   92.9362   11.8858 C.ar    1  UNL1        0.0714
     31 C          66.1501   94.4182   12.0504 C.ar    1  UNL1        0.1053
     32 N          66.9130   94.9348   10.8667 N.ar    1  UNL1       -0.2350
     33 C          67.2213   93.7720    9.9706 C.ar    1  UNL1        0.1343
     34 S          66.6489   92.5368   10.6004 S.2     1  UNL1       -0.0652
     35 C          60.4029   88.6303   11.1829 C.3     1  UNL1        0.0474
     36 C          60.0114   88.3780    9.7570 C.ar    1  UNL1       -0.0205
     37 C          59.5422   87.0163    9.3378 C.ar    1  UNL1       -0.0042
     38 C          59.1508   86.7640    7.9119 C.ar    1  UNL1       -0.0003
     39 C          59.2285   87.8733    6.9053 C.ar    1  UNL1       -0.0000
     40 C          59.6978   89.2349    7.3245 C.ar    1  UNL1       -0.0003
     41 C          60.0892   89.4873    8.7504 C.ar    1  UNL1       -0.0042
     42 C          62.0559   85.0453   10.4036 C.3     1  UNL1        0.0721
     43 C          64.1984   83.7340    9.7403 C.3     1  UNL1        0.0014
     44 C          63.0845   84.6709    9.3780 C.3     1  UNL1        0.0160
     45 C          62.9991   85.2334    7.9901 C.3     1  UNL1        0.0014
@<TRIPOS>BOND
     1    43    44    1
     2    44    45    1
     3    44    42    1
     4    42     1    1
     5     1    22    1
     6    23    22    1
     7    23    35    1
     8    35    36    1
     9    36    37   ar
    10    37    38   ar
    11    38    39   ar
    12    39    40   ar
    13    40    41   ar
    14    23    24    1
    15    24    25   am
    16    25    26    2
    17    25    28    1
    18    28    29    1
    19    29    30    1
    20    30    31   ar
    21    31    32   ar
    22    32    33   ar
    23    33    34   ar
    24     1     2    1
    25     3     2    1
    26     3    15    1
    27    15    16    1
    28    16    17   ar
    29    17    18   ar
    30    18    19   ar
    31    19    20   ar
    32    20    21   ar
    33     3     4    1
    34     4     5   am
    35     5     6    2
    36     5     8    1
    37     8     9    1
    38     9    10    1
    39    10    11   ar
    40    11    12   ar
    41    12    13   ar
    42    13    14   ar
    43    41    36   ar
    44    34    30   ar
    45    21    16   ar
    46    14    10   ar
    47    24    27    1
    48     4     7    1
@<TRIPOS>MOLECULE
*****
 45 48 0 0 0
SMALL
GASTEIGER

@<TRIPOS>ATOM
      1 N          62.5384   89.9334   11.0304 N.3     1  UNL1       -0.2699
      2 C          63.3424   91.1552   10.6974 C.3     1  UNL1        0.0924
      3 C          64.3941   91.6432   11.6489 C.3     1  UNL1        0.0950
      4 N          64.0293   91.9702   13.0667 N.am    1  UNL1       -0.2706
      5 C          64.0414   90.8940   14.1115 C.2     1  UNL1        0.4020
      6 O          64.4183   89.4909   13.7385 O.2     1  UNL1       -0.2264
      7 H          63.7820   92.8911   13.3114 H       1  UNL1        0.1527
      8 O          63.6766   91.2210   15.5292 O.3     1  UNL1       -0.4274
      9 C          64.6418   91.9718   16.3979 C.3     1  UNL1        0.2621
     10 C          65.8791   92.5723   15.7992 C.ar    1  UNL1        0.1323
     11 N          65.9271   93.5078   14.6276 N.ar    1  UNL1       -0.2374
     12 C          67.3633   93.8564   14.3713 C.ar    1  UNL1        0.1062
     13 C          68.2030   93.1365   15.3845 C.ar    1  UNL1        0.0573
     14 S          67.2858   92.3428   16.2671 S.2     1  UNL1       -0.0666
     15 C          65.8108   91.8044   11.1828 C.3     1  UNL1        0.0474
     16 C          66.2733   93.1196   10.6295 C.ar    1  UNL1       -0.0205
     17 C          65.5733   94.3867   11.0231 C.ar    1  UNL1       -0.0042
     18 C          66.0359   95.7019   10.4699 C.ar    1  UNL1       -0.0003
     19 C          67.1983   95.7502    9.5230 C.ar    1  UNL1       -0.0000
     20 C          67.8982   94.4833    9.1295 C.ar    1  UNL1       -0.0003
     21 C          67.4357   93.1680    9.6827 C.ar    1  UNL1       -0.0042
     22 C          63.0401   88.5754   10.6379 C.3     1  UNL1        0.0924
     23 C          62.4779   87.3495   11.2944 C.3     1  UNL1        0.0950
     24 N          63.1152   86.8060   12.5388 N.am    1  UNL1       -0.2706
     25 C          63.4040   85.3386   12.6541 C.2     1  UNL1        0.4020
     26 O          63.0556   84.4147   11.5250 O.2     1  UNL1       -0.2264
     27 H          63.3439   87.4124   13.2799 H       1  UNL1        0.1527
     28 O          64.0412   84.7951   13.8985 O.3     1  UNL1       -0.4291
     29 C          64.5637   85.7341   14.9450 C.3     1  UNL1        0.2447
     30 C          63.6607   86.2090   16.0447 C.ar    1  UNL1        0.0714
     31 C          62.7674   85.3466   16.8862 C.ar    1  UNL1        0.1053
     32 N          62.0471   86.2341   17.8575 N.ar    1  UNL1       -0.2350
     33 C          62.4953   87.6452   17.6162 C.ar    1  UNL1        0.1343
     34 S          63.4926   87.6296   16.4959 S.2     1  UNL1       -0.0652
     35 C          61.2784   86.6671   10.7066 C.3     1  UNL1        0.0474
     36 C          61.3400   86.1082    9.3159 C.ar    1  UNL1       -0.0205
     37 C          62.6131   85.4985    8.8083 C.ar    1  UNL1       -0.0042
     38 C          62.6746   84.9397    7.4177 C.ar    1  UNL1       -0.0003
     39 C          61.4632   84.9906    6.5346 C.ar    1  UNL1       -0.0000
     40 C          60.1902   85.6002    7.0422 C.ar    1  UNL1       -0.0003
     41 C          60.1285   86.1591    8.4329 C.ar    1  UNL1       -0.0042
     42 C          61.2326   90.0696   11.7559 C.3     1  UNL1        0.0721
     43 C          58.7986   90.9692   11.6274 C.3     1  UNL1        0.0014
     44 C          59.9636   90.2775   10.9836 C.3     1  UNL1        0.0160
     45 C          59.8596   89.7936    9.5676 C.3     1  UNL1        0.0014
@<TRIPOS>BOND
     1    43    44    1
     2    44    45    1
     3    44    42    1
     4    42     1    1
     5     1    22    1
     6    23    22    1
     7    23    35    1
     8    35    36    1
     9    36    37   ar
    10    37    38   ar
    11    38    39   ar
    12    39    40   ar
    13    40    41   ar
    14    23    24    1
    15    24    25   am
    16    25    26    2
    17    25    28    1
    18    28    29    1
    19    29    30    1
    20    30    31   ar
    21    31    32   ar
    22    32    33   ar
    23    33    34   ar
    24     1     2    1
    25     3     2    1
    26     3    15    1
    27    15    16    1
    28    16    17   ar
    29    17    18   ar
    30    18    19   ar
    31    19    20   ar
    32    20    21   ar
    33     3     4    1
    34     4     5   am
    35     5     6    2
    36     5     8    1
    37     8     9    1
    38     9    10    1
    39    10    11   ar
    40    11    12   ar
    41    12    13   ar
    42    13    14   ar
    43    41    36   ar
    44    34    30   ar
    45    21    16   ar
    46    14    10   ar
    47    24    27    1
    48     4     7    1
@<TRIPOS>MOLECULE
*****
 45 48 0 0 0
SMALL
GASTEIGER

@<TRIPOS>ATOM
      1 N          62.1064   89.9461   11.7436 N.3     1  UNL1       -0.2699
      2 C          62.7050   88.5934   11.4948 C.3     1  UNL1        0.0924
      3 C          61.9900   87.6061   10.6207 C.3     1  UNL1        0.0950
      4 N          61.6926   87.9480    9.1908 N.am    1  UNL1       -0.2706
      5 C          60.2982   87.7989    8.6584 C.2     1  UNL1        0.4020
      6 O          59.2013   87.3079    9.5560 O.2     1  UNL1       -0.2264
      7 H          62.4126   88.2702    8.6017 H       1  UNL1        0.1527
      8 O          60.0008   88.1407    7.2285 O.3     1  UNL1       -0.4274
      9 C          58.8432   89.0349    6.8963 C.3     1  UNL1        0.2621
     10 C          59.0230   90.1658    5.9273 C.ar    1  UNL1        0.1323
     11 N          60.3272   90.6400    5.3579 N.ar    1  UNL1       -0.2374
     12 C          60.0404   91.7883    4.4363 C.ar    1  UNL1        0.1062
     13 C          58.5590   92.0237    4.4362 C.ar    1  UNL1        0.0573
     14 S          57.9301   91.0210    5.3577 S.2     1  UNL1       -0.0666
     15 C          61.5724   86.2769   11.1766 C.3     1  UNL1        0.0474
     16 C          62.3906   85.0531   10.8890 C.ar    1  UNL1       -0.0205
     17 C          62.4680   83.9479   11.9002 C.ar    1  UNL1       -0.0042
     18 C          63.2863   82.7241   11.6126 C.ar    1  UNL1       -0.0003
     19 C          64.0272   82.6055   10.3138 C.ar    1  UNL1       -0.0000
     20 C          63.9499   83.7107    9.3026 C.ar    1  UNL1       -0.0003
     21 C          63.1316   84.9345    9.5901 C.ar    1  UNL1       -0.0042
     22 C          62.7383   90.8744   12.7380 C.3     1  UNL1        0.0924
     23 C          64.1430   90.6308   13.2042 C.3     1  UNL1        0.0950
     24 N          64.4758   89.3785   13.9599 N.am    1  UNL1       -0.2706
     25 C          63.5884   88.9193   15.0785 C.2     1  UNL1        0.4020
     26 O          62.3680   89.7123   15.4416 O.2     1  UNL1       -0.2264
     27 H          65.2768   88.8580   13.7216 H       1  UNL1        0.1527
     28 O          63.9212   87.6670   15.8342 O.3     1  UNL1       -0.4291
     29 C          64.5692   86.5140   15.1267 C.3     1  UNL1        0.2447
     30 C          63.9654   85.1438   15.2165 C.ar    1  UNL1        0.0714
     31 C          64.6589   83.8521   14.8993 C.ar    1  UNL1        0.1053
     32 N          63.6842   82.7347   15.1261 N.ar    1  UNL1       -0.2350
     33 C          62.3882   83.3359   15.5835 C.ar    1  UNL1        0.1343
     34 S          62.5620   84.8247   15.6394 S.2     1  UNL1       -0.0652
     35 C          65.2149   91.6394   12.9148 C.3     1  UNL1        0.0474
     36 C          66.2382   91.9676   13.9612 C.ar    1  UNL1       -0.0205
     37 C          65.8008   92.3485   15.3446 C.ar    1  UNL1       -0.0042
     38 C          66.8241   92.6767   16.3911 C.ar    1  UNL1       -0.0003
     39 C          68.2848   92.6240   16.0542 C.ar    1  UNL1       -0.0000
     40 C          68.7223   92.2432   14.6709 C.ar    1  UNL1       -0.0003
     41 C          67.6989   91.9150   13.6244 C.ar    1  UNL1       -0.0042
     42 C          60.8759   90.3704   10.9981 C.3     1  UNL1        0.0721
     43 C          59.1301   89.0841   12.4290 C.3     1  UNL1        0.0014
     44 C          59.5353   90.3118   11.6684 C.3     1  UNL1        0.0160
     45 C          58.5998   91.4809   11.5781 C.3     1  UNL1        0.0014
@<TRIPOS>BOND
     1    43    44    1
     2    44    45    1
     3    44    42    1
     4    42     1    1
     5     1    22    1
     6    23    22    1
     7    23    35    1
     8    35    36    1
     9    36    37   ar
    10    37    38   ar
    11    38    39   ar
    12    39    40   ar
    13    40    41   ar
    14    23    24    1
    15    24    25   am
    16    25    26    2
    17    25    28    1
    18    28    29    1
    19    29    30    1
    20    30    31   ar
    21    31    32   ar
    22    32    33   ar
    23    33    34   ar
    24     1     2    1
    25     3     2    1
    26     3    15    1
    27    15    16    1
    28    16    17   ar
    29    17    18   ar
    30    18    19   ar
    31    19    20   ar
    32    20    21   ar
    33     3     4    1
    34     4     5   am
    35     5     6    2
    36     5     8    1
    37     8     9    1
    38     9    10    1
    39    10    11   ar
    40    11    12   ar
    41    12    13   ar
    42    13    14   ar
    43    41    36   ar
    44    34    30   ar
    45    21    16   ar
    46    14    10   ar
    47    24    27    1
    48     4     7    1
