@<TRIPOS>MOLECULE
*****
 25 27 0 0 0
SMALL
GASTEIGER

@<TRIPOS>ATOM
      1 C          62.9769   85.0954   12.2620 C.ar    1  UNL1        0.0554
      2 C          63.7133   85.8706   13.3140 C.ar    1  UNL1        0.0824
      3 C          64.5112   85.2873   14.4423 C.3     1  UNL1        0.0540
      4 N          63.5116   87.3314   13.0396 N.ar    1  UNL1       -0.1681
      5 N          62.6506   87.4591   11.8180 N.ar    1  UNL1       -0.2085
      6 C          62.1248   88.6551   11.0812 C.ar    1  UNL1        0.1569
      7 C          61.2685   88.4693    9.8637 C.ar    1  UNL1        0.0379
      8 C          60.9380   87.0873    9.3831 C.ar    1  UNL1        0.0625
      9 C          60.0817   86.9015    8.1656 C.3     1  UNL1        0.0522
     10 N          61.4638   85.8912   10.1199 N.ar    1  UNL1       -0.2308
     11 C          62.3201   86.0771   11.3374 C.ar    1  UNL1        0.1645
     12 C          62.7736   80.6118   11.9365 C.ar    1  UNL1        0.1432
     13 C          62.2635   81.2982   13.1688 C.ar    1  UNL1        0.0666
     14 C          62.3312   82.7928   13.2773 C.ar    1  UNL1        0.1454
     15 F          61.8210   83.4791   14.5096 F       1  UNL1       -0.2040
     16 C          62.9091   83.6009   12.1535 C.ar    1  UNL1        0.0593
     17 C          63.4193   82.9144   10.9212 C.ar    1  UNL1        0.1454
     18 F          63.9972   83.7225    9.7973 F       1  UNL1       -0.2040
     19 C          63.3515   81.4198   10.8127 C.ar    1  UNL1        0.0666
     20 C          62.7377   78.4609   10.4797 C.3     1  UNL1        0.2525
     21 O          62.7059   79.1172   11.8281 O.3     1  UNL1       -0.4713
     22 C          62.4553   90.0371   11.5618 C.3     1  UNL1        0.4350
     23 F          62.7858   91.4190   12.0424 F       1  UNL1       -0.1644
     24 F          61.4984   89.8685   12.7045 F       1  UNL1       -0.1644
     25 F          63.4122   90.2057   10.4190 F       1  UNL1       -0.1644
@<TRIPOS>BOND
     1    20    21    1
     2    21    12    1
     3    12    13   ar
     4    13    14   ar
     5    14    15    1
     6    14    16   ar
     7    16     1    1
     8     1     2   ar
     9     2     3    1
    10     2     4   ar
    11     4     5   ar
    12     5     6   ar
    13     6    22    1
    14    22    23    1
    15    22    24    1
    16    22    25    1
    17     6     7   ar
    18     7     8   ar
    19     8     9    1
    20     8    10   ar
    21    10    11   ar
    22    16    17   ar
    23    17    18    1
    24    17    19   ar
    25    19    12   ar
    26    11     1   ar
    27    11     5   ar
@<TRIPOS>MOLECULE
*****
 25 27 0 0 0
SMALL
GASTEIGER

@<TRIPOS>ATOM
      1 C          62.9776   85.1043   12.2606 C.ar    1  UNL1        0.0554
      2 C          63.7134   85.8787   13.3137 C.ar    1  UNL1        0.0824
      3 C          64.5102   85.2946   14.4424 C.3     1  UNL1        0.0540
      4 N          63.5125   87.3397   13.0398 N.ar    1  UNL1       -0.1681
      5 N          62.6526   87.4683   11.8175 N.ar    1  UNL1       -0.2085
      6 C          62.1279   88.6649   11.0808 C.ar    1  UNL1        0.1569
      7 C          61.2726   88.4799    9.8625 C.ar    1  UNL1        0.0379
      8 C          60.9420   87.0983    9.3810 C.ar    1  UNL1        0.0625
      9 C          60.0867   86.9134    8.1626 C.3     1  UNL1        0.0522
     10 N          61.4667   85.9017   10.1177 N.ar    1  UNL1       -0.2308
     11 C          62.3220   86.0867   11.3359 C.ar    1  UNL1        0.1645
     12 C          62.7730   80.6208   11.9330 C.ar    1  UNL1        0.1432
     13 C          63.3520   81.4293   10.8100 C.ar    1  UNL1        0.0666
     14 C          63.4202   82.9238   10.9192 C.ar    1  UNL1        0.1454
     15 F          63.9992   83.7321    9.7961 F       1  UNL1       -0.2040
     16 C          62.9094   83.6098   12.1514 C.ar    1  UNL1        0.0593
     17 C          62.3304   82.8013   13.2745 C.ar    1  UNL1        0.1454
     18 F          61.8197   83.4874   14.5068 F       1  UNL1       -0.2040
     19 C          62.2623   81.3069   13.1653 C.ar    1  UNL1        0.0666
     20 C          62.7382   78.4706   10.4751 C.3     1  UNL1        0.2525
     21 O          62.7048   79.1264   11.8238 O.3     1  UNL1       -0.4713
     22 C          62.4584   90.0465   11.5624 C.3     1  UNL1        0.4350
     23 F          62.7890   91.4281   12.0440 F       1  UNL1       -0.1644
     24 F          63.3958   90.2256   10.4051 F       1  UNL1       -0.1644
     25 F          61.5210   89.8674   12.7196 F       1  UNL1       -0.1644
@<TRIPOS>BOND
     1    20    21    1
     2    21    12    1
     3    12    13   ar
     4    13    14   ar
     5    14    15    1
     6    14    16   ar
     7    16     1    1
     8     1     2   ar
     9     2     3    1
    10     2     4   ar
    11     4     5   ar
    12     5     6   ar
    13     6    22    1
    14    22    23    1
    15    22    24    1
    16    22    25    1
    17     6     7   ar
    18     7     8   ar
    19     8     9    1
    20     8    10   ar
    21    10    11   ar
    22    16    17   ar
    23    17    18    1
    24    17    19   ar
    25    19    12   ar
    26    11     1   ar
    27    11     5   ar
@<TRIPOS>MOLECULE
*****
 25 27 0 0 0
SMALL
GASTEIGER

@<TRIPOS>ATOM
      1 C          62.9904   84.8816   12.0138 C.ar    1  UNL1        0.0554
      2 C          63.6592   83.7732   11.2561 C.ar    1  UNL1        0.0824
      3 C          64.5364   82.7077   11.8436 C.3     1  UNL1        0.0540
      4 N          63.2968   83.9174    9.8077 N.ar    1  UNL1       -0.1681
      5 N          62.4040   85.1149    9.6702 N.ar    1  UNL1       -0.2085
      6 C          61.7390   85.7397    8.4797 C.ar    1  UNL1        0.1569
      7 C          60.8846   86.9604    8.6527 C.ar    1  UNL1        0.0379
      8 C          60.6953   87.5563   10.0161 C.ar    1  UNL1        0.0625
      9 C          59.8409   88.7771   10.1891 C.3     1  UNL1        0.0522
     10 N          61.3603   86.9315   11.2067 N.ar    1  UNL1       -0.2308
     11 C          62.2146   85.7108   11.0337 C.ar    1  UNL1        0.1645
     12 C          63.2633   85.5940   16.4487 C.ar    1  UNL1        0.1432
     13 C          63.7535   86.6381   15.4898 C.ar    1  UNL1        0.0666
     14 C          63.6625   86.4006   14.0115 C.ar    1  UNL1        0.1454
     15 F          64.1527   87.4449   13.0526 F       1  UNL1       -0.2040
     16 C          63.0814   85.1191   13.4921 C.ar    1  UNL1        0.0593
     17 C          62.5912   84.0749   14.4510 C.ar    1  UNL1        0.1454
     18 F          62.0100   82.7933   13.9317 F       1  UNL1       -0.2040
     19 C          62.6821   84.3124   15.9293 C.ar    1  UNL1        0.0666
     20 C          62.6841   87.0267   18.5372 C.3     1  UNL1        0.2525
     21 O          63.3543   85.8315   17.9270 O.3     1  UNL1       -0.4713
     22 C          61.9283   85.1438    7.1163 C.3     1  UNL1        0.4350
     23 F          62.1177   84.5479    5.7528 F       1  UNL1       -0.1644
     24 F          63.4163   85.2186    7.2902 F       1  UNL1       -0.1644
     25 F          60.4403   85.0690    6.9423 F       1  UNL1       -0.1644
@<TRIPOS>BOND
     1    20    21    1
     2    21    12    1
     3    12    13   ar
     4    13    14   ar
     5    14    15    1
     6    14    16   ar
     7    16     1    1
     8     1     2   ar
     9     2     3    1
    10     2     4   ar
    11     4     5   ar
    12     5     6   ar
    13     6    22    1
    14    22    23    1
    15    22    24    1
    16    22    25    1
    17     6     7   ar
    18     7     8   ar
    19     8     9    1
    20     8    10   ar
    21    10    11   ar
    22    16    17   ar
    23    17    18    1
    24    17    19   ar
    25    19    12   ar
    26    11     1   ar
    27    11     5   ar
@<TRIPOS>MOLECULE
*****
 25 27 0 0 0
SMALL
GASTEIGER

@<TRIPOS>ATOM
      1 C          63.4684   89.7715   12.1774 C.ar    1  UNL1        0.0554
      2 C          62.8708   90.3204   10.9158 C.ar    1  UNL1        0.0824
      3 C          62.9035   91.7540   10.4757 C.3     1  UNL1        0.0540
      4 N          62.2348   89.1839   10.1716 N.ar    1  UNL1       -0.1681
      5 N          62.4393   87.9327   10.9732 N.ar    1  UNL1       -0.2085
      6 C          62.0297   86.5096   10.7344 C.ar    1  UNL1        0.1569
      7 C          62.3826   85.4497   11.7354 C.ar    1  UNL1        0.0379
      8 C          63.1450   85.8128   12.9751 C.ar    1  UNL1        0.0625
      9 C          63.4978   84.7528   13.9761 C.3     1  UNL1        0.0522
     10 N          63.5545   87.2359   13.2138 N.ar    1  UNL1       -0.2308
     11 C          63.2017   88.2958   12.2129 C.ar    1  UNL1        0.1645
     12 C          65.6739   92.1366   15.3067 C.ar    1  UNL1        0.1432
     13 C          66.0871   92.2282   13.8676 C.ar    1  UNL1        0.0666
     14 C          65.3519   91.4399   12.8246 C.ar    1  UNL1        0.1454
     15 F          65.7652   91.5316   11.3855 F       1  UNL1       -0.2040
     16 C          64.2036   90.5599   13.2205 C.ar    1  UNL1        0.0593
     17 C          63.7904   90.4682   14.6596 C.ar    1  UNL1        0.1454
     18 F          62.6420   89.5882   15.0556 F       1  UNL1       -0.2040
     19 C          64.5256   91.2566   15.7027 C.ar    1  UNL1        0.0666
     20 C          67.8241   93.3579   16.1038 C.3     1  UNL1        0.2525
     21 O          66.4092   92.9249   16.3497 O.3     1  UNL1       -0.4713
     22 C          61.2673   86.1465    9.4947 C.3     1  UNL1        0.4350
     23 F          60.5049   85.7833    8.2550 F       1  UNL1       -0.1644
     24 F          62.5018   85.5176    8.9198 F       1  UNL1       -0.1644
     25 F          60.0328   86.7753   10.0697 F       1  UNL1       -0.1644
@<TRIPOS>BOND
     1    20    21    1
     2    21    12    1
     3    12    13   ar
     4    13    14   ar
     5    14    15    1
     6    14    16   ar
     7    16     1    1
     8     1     2   ar
     9     2     3    1
    10     2     4   ar
    11     4     5   ar
    12     5     6   ar
    13     6    22    1
    14    22    23    1
    15    22    24    1
    16    22    25    1
    17     6     7   ar
    18     7     8   ar
    19     8     9    1
    20     8    10   ar
    21    10    11   ar
    22    16    17   ar
    23    17    18    1
    24    17    19   ar
    25    19    12   ar
    26    11     1   ar
    27    11     5   ar
@<TRIPOS>MOLECULE
*****
 25 27 0 0 0
SMALL
GASTEIGER

@<TRIPOS>ATOM
      1 C          63.6528   89.7746   12.5243 C.ar    1  UNL1        0.0554
      2 C          62.9783   90.2472   11.2706 C.ar    1  UNL1        0.0824
      3 C          62.9421   91.6600   10.7677 C.3     1  UNL1        0.0540
      4 N          62.3463   89.0591   10.6082 N.ar    1  UNL1       -0.1681
      5 N          62.6302   87.8521   11.4524 N.ar    1  UNL1       -0.2085
      6 C          62.2578   86.4076   11.2957 C.ar    1  UNL1        0.1569
      7 C          62.6929   85.4053   12.3234 C.ar    1  UNL1        0.0379
      8 C          63.5004   85.8475   13.5076 C.ar    1  UNL1        0.0625
      9 C          63.9354   84.8451   14.5353 C.3     1  UNL1        0.0522
     10 N          63.8727   87.2920   13.6642 N.ar    1  UNL1       -0.2308
     11 C          63.4377   88.2943   12.6366 C.ar    1  UNL1        0.1645
     12 C          65.9231   92.3460   15.4370 C.ar    1  UNL1        0.1432
     13 C          64.8510   91.4205   15.9309 C.ar    1  UNL1        0.0666
     14 C          64.0943   90.5634   14.9600 C.ar    1  UNL1        0.1454
     15 F          63.0222   89.6378   15.4541 F       1  UNL1       -0.2040
     16 C          64.4095   90.6317   13.4952 C.ar    1  UNL1        0.0593
     17 C          65.4817   91.5573   13.0012 C.ar    1  UNL1        0.1454
     18 F          65.7970   91.6257   11.5363 F       1  UNL1       -0.2040
     19 C          66.2384   92.4144   13.9721 C.ar    1  UNL1        0.0666
     20 C          68.1275   93.5122   16.1654 C.3     1  UNL1        0.2525
     21 O          66.6799   93.2032   16.4079 O.3     1  UNL1       -0.4713
     22 C          61.4504   85.9653   10.1115 C.3     1  UNL1        0.4350
     23 F          60.6429   85.5231    8.9273 F       1  UNL1       -0.1644
     24 F          60.2529   86.6831   10.6600 F       1  UNL1       -0.1644
     25 F          62.6479   85.2476    9.5630 F       1  UNL1       -0.1644
@<TRIPOS>BOND
     1    20    21    1
     2    21    12    1
     3    12    13   ar
     4    13    14   ar
     5    14    15    1
     6    14    16   ar
     7    16     1    1
     8     1     2   ar
     9     2     3    1
    10     2     4   ar
    11     4     5   ar
    12     5     6   ar
    13     6    22    1
    14    22    23    1
    15    22    24    1
    16    22    25    1
    17     6     7   ar
    18     7     8   ar
    19     8     9    1
    20     8    10   ar
    21    10    11   ar
    22    16    17   ar
    23    17    18    1
    24    17    19   ar
    25    19    12   ar
    26    11     1   ar
    27    11     5   ar
@<TRIPOS>MOLECULE
*****
 25 27 0 0 0
SMALL
GASTEIGER

@<TRIPOS>ATOM
      1 C          62.5041   85.8508   11.2398 C.ar    1  UNL1        0.0554
      2 C          62.7685   87.1831   11.8762 C.ar    1  UNL1        0.0824
      3 C          62.7122   88.5152   11.1890 C.3     1  UNL1        0.0540
      4 N          63.0991   86.9494   13.3205 N.ar    1  UNL1       -0.1681
      5 N          63.0391   85.4726   13.5768 N.ar    1  UNL1       -0.2085
      6 C          63.2717   84.6585   14.8149 C.ar    1  UNL1        0.1569
      7 C          63.1366   83.1654   14.7671 C.ar    1  UNL1        0.0379
      8 C          62.7689   82.4864   13.4811 C.ar    1  UNL1        0.0625
      9 C          62.6338   80.9932   13.4333 C.3     1  UNL1        0.0522
     10 N          62.5362   83.3005   12.2429 N.ar    1  UNL1       -0.2308
     11 C          62.6713   84.7936   12.2908 C.ar    1  UNL1        0.1645
     12 C          61.4026   85.1484    6.9336 C.ar    1  UNL1        0.1432
     13 C          62.6604   84.5524    7.4928 C.ar    1  UNL1        0.0666
     14 C          63.0275   84.7865    8.9282 C.ar    1  UNL1        0.1454
     15 F          64.2854   84.1905    9.4874 F       1  UNL1       -0.2040
     16 C          62.1370   85.6166    9.8044 C.ar    1  UNL1        0.0593
     17 C          60.8791   86.2126    9.2451 C.ar    1  UNL1        0.1454
     18 F          59.9885   87.0427   10.1213 F       1  UNL1       -0.2040
     19 C          60.5119   85.9785    7.8097 C.ar    1  UNL1        0.0666
     20 C          61.9349   84.0987    4.6173 C.3     1  UNL1        0.2525
     21 O          61.0354   84.9142    5.4982 O.3     1  UNL1       -0.4713
     22 C          63.6395   85.3375   16.1009 C.3     1  UNL1        0.4350
     23 F          64.0072   86.0165   17.3869 F       1  UNL1       -0.1644
     24 F          64.9841   85.6838   15.5335 F       1  UNL1       -0.1644
     25 F          62.2948   84.9912   16.6683 F       1  UNL1       -0.1644
@<TRIPOS>BOND
     1    20    21    1
     2    21    12    1
     3    12    13   ar
     4    13    14   ar
     5    14    15    1
     6    14    16   ar
     7    16     1    1
     8     1     2   ar
     9     2     3    1
    10     2     4   ar
    11     4     5   ar
    12     5     6   ar
    13     6    22    1
    14    22    23    1
    15    22    24    1
    16    22    25    1
    17     6     7   ar
    18     7     8   ar
    19     8     9    1
    20     8    10   ar
    21    10    11   ar
    22    16    17   ar
    23    17    18    1
    24    17    19   ar
    25    19    12   ar
    26    11     1   ar
    27    11     5   ar
@<TRIPOS>MOLECULE
*****
 25 27 0 0 0
SMALL
GASTEIGER

@<TRIPOS>ATOM
      1 C          63.8166   90.1675   13.0418 C.ar    1  UNL1        0.0554
      2 C          63.9646   90.0208   14.5272 C.ar    1  UNL1        0.0824
      3 C          63.2116   89.0587   15.3976 C.3     1  UNL1        0.0540
      4 N          64.9978   91.0051   14.9895 N.ar    1  UNL1       -0.1681
      5 N          65.4883   91.7601   13.7898 N.ar    1  UNL1       -0.2085
      6 C          66.5054   92.8521   13.6379 C.ar    1  UNL1        0.1569
      7 C          66.7924   93.4263   12.2823 C.ar    1  UNL1        0.0379
      8 C          66.0624   92.9087   11.0785 C.ar    1  UNL1        0.0625
      9 C          66.3496   93.4830    9.7229 C.3     1  UNL1        0.0522
     10 N          65.0454   91.8167   11.2304 N.ar    1  UNL1       -0.2308
     11 C          64.7583   91.2424   12.5860 C.ar    1  UNL1        0.1645
     12 C          61.0358   87.7985   10.4140 C.ar    1  UNL1        0.1432
     13 C          60.9706   89.2970   10.4164 C.ar    1  UNL1        0.0666
     14 C          61.8975   90.0867   11.2923 C.ar    1  UNL1        0.1454
     15 F          61.8323   91.5853   11.2947 F       1  UNL1       -0.2040
     16 C          62.8897   89.3778   12.1658 C.ar    1  UNL1        0.0593
     17 C          62.9549   87.8792   12.1634 C.ar    1  UNL1        0.1454
     18 F          63.9470   87.1702   13.0369 F       1  UNL1       -0.2040
     19 C          62.0279   87.0895   11.2875 C.ar    1  UNL1        0.0666
     20 C          60.6287   86.3571    8.2911 C.3     1  UNL1        0.2525
     21 O          60.1088   87.0088    9.5380 O.3     1  UNL1       -0.4713
     22 C          67.2354   93.3698   14.8417 C.3     1  UNL1        0.4350
     23 F          67.9654   93.8875   16.0455 F       1  UNL1       -0.1644
     24 F          67.7686   91.9937   15.1101 F       1  UNL1       -0.1644
     25 F          66.7022   94.7458   14.5733 F       1  UNL1       -0.1644
@<TRIPOS>BOND
     1    20    21    1
     2    21    12    1
     3    12    13   ar
     4    13    14   ar
     5    14    15    1
     6    14    16   ar
     7    16     1    1
     8     1     2   ar
     9     2     3    1
    10     2     4   ar
    11     4     5   ar
    12     5     6   ar
    13     6    22    1
    14    22    23    1
    15    22    24    1
    16    22    25    1
    17     6     7   ar
    18     7     8   ar
    19     8     9    1
    20     8    10   ar
    21    10    11   ar
    22    16    17   ar
    23    17    18    1
    24    17    19   ar
    25    19    12   ar
    26    11     1   ar
    27    11     5   ar
@<TRIPOS>MOLECULE
*****
 25 27 0 0 0
SMALL
GASTEIGER

@<TRIPOS>ATOM
      1 C          63.7925   90.1503   13.0524 C.ar    1  UNL1        0.0554
      2 C          63.9085   90.0062   14.5410 C.ar    1  UNL1        0.0824
      3 C          63.1301   89.0524   15.3978 C.3     1  UNL1        0.0540
      4 N          64.9396   90.9836   15.0222 N.ar    1  UNL1       -0.1681
      5 N          65.4608   91.7317   13.8311 N.ar    1  UNL1       -0.2085
      6 C          66.4894   92.8153   13.6978 C.ar    1  UNL1        0.1569
      7 C          66.8090   93.3838   12.3471 C.ar    1  UNL1        0.0379
      8 C          66.1000   92.8688   11.1296 C.ar    1  UNL1        0.0625
      9 C          66.4197   93.4374    9.7788 C.3     1  UNL1        0.0522
     10 N          65.0714   91.7852   11.2630 N.ar    1  UNL1       -0.2308
     11 C          64.7518   91.2167   12.6137 C.ar    1  UNL1        0.1645
     12 C          61.0481   87.7966   10.3731 C.ar    1  UNL1        0.1432
     13 C          62.0219   87.0823   11.2627 C.ar    1  UNL1        0.0666
     14 C          62.9367   87.8669   12.1558 C.ar    1  UNL1        0.1454
     15 F          63.9106   87.1526   13.0454 F       1  UNL1       -0.2040
     16 C          62.8777   89.3657   12.1593 C.ar    1  UNL1        0.0593
     17 C          61.9037   90.0800   11.2697 C.ar    1  UNL1        0.1454
     18 F          61.8447   91.5788   11.2732 F       1  UNL1       -0.2040
     19 C          60.9890   89.2954   10.3766 C.ar    1  UNL1        0.0666
     20 C          59.6139   87.6253    8.2136 C.3     1  UNL1        0.2525
     21 O          60.1333   87.0120    9.4800 O.3     1  UNL1       -0.4713
     22 C          67.1983   93.3303   14.9152 C.3     1  UNL1        0.4350
     23 F          67.9073   93.8454   16.1326 F       1  UNL1       -0.1644
     24 F          66.7288   94.7198   14.6008 F       1  UNL1       -0.1644
     25 F          67.6678   91.9408   15.2297 F       1  UNL1       -0.1644
@<TRIPOS>BOND
     1    20    21    1
     2    21    12    1
     3    12    13   ar
     4    13    14   ar
     5    14    15    1
     6    14    16   ar
     7    16     1    1
     8     1     2   ar
     9     2     3    1
    10     2     4   ar
    11     4     5   ar
    12     5     6   ar
    13     6    22    1
    14    22    23    1
    15    22    24    1
    16    22    25    1
    17     6     7   ar
    18     7     8   ar
    19     8     9    1
    20     8    10   ar
    21    10    11   ar
    22    16    17   ar
    23    17    18    1
    24    17    19   ar
    25    19    12   ar
    26    11     1   ar
    27    11     5   ar
@<TRIPOS>MOLECULE
*****
 25 27 0 0 0
SMALL
GASTEIGER

@<TRIPOS>ATOM
      1 C          63.0708   90.1764   12.1505 C.ar    1  UNL1        0.0554
      2 C          63.8874   91.3090   11.6024 C.ar    1  UNL1        0.0824
      3 C          63.9157   91.7648   10.1736 C.3     1  UNL1        0.0540
      4 N          64.6706   91.9058   12.7339 N.ar    1  UNL1       -0.1681
      5 N          64.3381   91.1420   13.9814 N.ar    1  UNL1       -0.2085
      6 C          64.8080   91.2817   15.3990 C.ar    1  UNL1        0.1569
      7 C          64.2891   90.3526   16.4561 C.ar    1  UNL1        0.0379
      8 C          63.3004   89.2837   16.0955 C.ar    1  UNL1        0.0625
      9 C          62.7815   88.3545   17.1527 C.3     1  UNL1        0.0522
     10 N          62.8306   89.1440   14.6779 N.ar    1  UNL1       -0.2308
     11 C          63.3494   90.0731   13.6208 C.ar    1  UNL1        0.1645
     12 C          60.2761   87.5491    9.7973 C.ar    1  UNL1        0.1432
     13 C          60.0741   89.0354    9.8123 C.ar    1  UNL1        0.0666
     14 C          61.0056   89.9111   10.5967 C.ar    1  UNL1        0.1454
     15 F          60.8035   91.3974   10.6116 F       1  UNL1       -0.2040
     16 C          62.1393   89.3007   11.3661 C.ar    1  UNL1        0.0593
     17 C          62.3414   87.8143   11.3512 C.ar    1  UNL1        0.1454
     18 F          63.4750   87.2038   12.1206 F       1  UNL1       -0.2040
     19 C          61.4098   86.9386   10.5668 C.ar    1  UNL1        0.0666
     20 C          59.0631   86.9792    7.5716 C.3     1  UNL1        0.2525
     21 O          59.3445   86.6734    9.0129 O.3     1  UNL1       -0.4713
     22 C          65.7967   92.3506   15.7596 C.3     1  UNL1        0.4350
     23 F          66.7854   93.4194   16.1201 F       1  UNL1       -0.1644
     24 F          64.8790   92.8338   16.8433 F       1  UNL1       -0.1644
     25 F          66.7143   91.8673   14.6759 F       1  UNL1       -0.1644
@<TRIPOS>BOND
     1    20    21    1
     2    21    12    1
     3    12    13   ar
     4    13    14   ar
     5    14    15    1
     6    14    16   ar
     7    16     1    1
     8     1     2   ar
     9     2     3    1
    10     2     4   ar
    11     4     5   ar
    12     5     6   ar
    13     6    22    1
    14    22    23    1
    15    22    24    1
    16    22    25    1
    17     6     7   ar
    18     7     8   ar
    19     8     9    1
    20     8    10   ar
    21    10    11   ar
    22    16    17   ar
    23    17    18    1
    24    17    19   ar
    25    19    12   ar
    26    11     1   ar
    27    11     5   ar
