@<TRIPOS>MOLECULE
*****
 32 34 0 0 0
SMALL
GASTEIGER

@<TRIPOS>ATOM
      1 C          64.3667   89.6775   14.1381 C.ar    1  UNL1        0.0942
      2 C          65.4951   90.4787   14.7166 C.ar    1  UNL1        0.1078
      3 N          65.8954   91.7774   14.0819 N.ar    1  UNL1       -0.2119
      4 C          65.1673   92.2750   12.8685 C.ar    1  UNL1        0.2206
      5 N          64.0390   91.4739   12.2899 N.ar    1  UNL1       -0.2094
      6 C          63.6386   90.1752   12.9246 C.ar    1  UNL1        0.1613
      7 O          63.2188   88.3784   16.0732 O.2     1  UNL1       -0.2700
      8 C          63.9663   88.3787   14.7728 C.2     1  UNL1        0.2489
      9 N          64.3135   87.0802   14.1069 N.am    1  UNL1       -0.2985
     10 H          64.8041   87.0804   13.2533 H       1  UNL1        0.1498
     11 C          63.9131   85.7814   14.7415 C.3     1  UNL1        0.1165
     12 C          63.9884   84.5070   13.9539 C.3     1  UNL1        0.1063
     13 O          64.7414   84.0974   15.1847 O.3     1  UNL1       -0.3851
     14 C          63.2092   85.3593   12.9965 C.3     1  UNL1        0.0286
     15 C          62.7668   84.7949   11.6791 C.3     1  UNL1        0.0025
     16 C          63.1037   83.3782   11.3190 C.3     1  UNL1        0.0002
     17 C          63.8828   82.5260   12.2763 C.3     1  UNL1        0.0025
     18 C          64.3252   83.0904   13.5937 C.3     1  UNL1        0.0286
     19 H          64.7762   84.8421   15.8053 H       1  UNL1        0.2103
     20 C          62.5102   89.3740   12.3460 C.3     1  UNL1        0.4351
     21 F          61.3817   88.5728   11.7675 F       1  UNL1       -0.1644
     22 F          61.5438   90.0852   13.2461 F       1  UNL1       -0.1644
     23 F          63.4767   88.6627   11.4460 F       1  UNL1       -0.1644
     24 N          65.5677   93.5739   12.2338 N.pl3   1  UNL1       -0.2825
     25 H          65.2344   94.4244   12.6007 H       1  UNL1        0.1551
     26 C          66.4760   93.5768   11.0402 C.ar    1  UNL1        0.0513
     27 C          67.2781   92.3543   10.7050 C.ar    1  UNL1        0.0147
     28 C          68.1864   92.3573    9.5113 C.ar    1  UNL1        0.0021
     29 C          68.2927   93.5825    8.6527 C.ar    1  UNL1        0.0115
     30 C          67.4905   94.8050    8.9878 C.ar    1  UNL1        0.0589
     31 CL         67.5967   96.0304    8.1292 Cl      1  UNL1       -0.0822
     32 C          66.5823   94.8021   10.1815 C.ar    1  UNL1        0.0261
@<TRIPOS>BOND
     1     7     8    2
     2     8     9   am
     3     9    11    1
     4    11    12    1
     5    12    13    1
     6    12    14    1
     7    14    15    1
     8    15    16    1
     9    16    17    1
    10    17    18    1
    11     8     1    1
    12     1     2   ar
    13     2     3   ar
    14     3     4   ar
    15     4    24    1
    16    24    26    1
    17    26    27   ar
    18    27    28   ar
    19    28    29   ar
    20    29    30   ar
    21    30    31    1
    22    30    32   ar
    23     4     5   ar
    24     5     6   ar
    25     6    20    1
    26    20    21    1
    27    20    22    1
    28    20    23    1
    29    18    12    1
    30     6     1   ar
    31    32    26   ar
    32     9    10    1
    33    13    19    1
    34    24    25    1
@<TRIPOS>MOLECULE
*****
 32 34 0 0 0
SMALL
GASTEIGER

@<TRIPOS>ATOM
      1 C          63.0838   89.7427   12.0843 C.ar    1  UNL1        0.0942
      2 C          63.2254   90.6123   10.8704 C.ar    1  UNL1        0.1078
      3 N          64.0576   91.8587   10.9335 N.ar    1  UNL1       -0.2119
      4 C          64.7482   92.2354   12.2107 C.ar    1  UNL1        0.2206
      5 N          64.6066   91.3659   13.4246 N.ar    1  UNL1       -0.2094
      6 C          63.7745   90.1195   13.3615 C.ar    1  UNL1        0.1613
      7 O          60.7548   88.5934   12.0150 O.2     1  UNL1       -0.2700
      8 C          62.2516   88.4964   12.0212 C.2     1  UNL1        0.2489
      9 N          62.9164   87.1529   11.9642 N.am    1  UNL1       -0.2985
     10 H          63.8988   87.0892   11.9683 H       1  UNL1        0.1498
     11 C          62.0843   85.9064   11.9011 C.3     1  UNL1        0.1165
     12 C          62.7315   84.5633   12.0656 C.3     1  UNL1        0.1063
     13 O          62.3014   84.8201   13.4794 O.3     1  UNL1       -0.3851
     14 C          62.9369   84.7730   10.5946 C.3     1  UNL1        0.0286
     15 C          63.6401   83.7287    9.7792 C.3     1  UNL1        0.0025
     16 C          64.1380   82.4748   10.4348 C.3     1  UNL1        0.0002
     17 C          63.9326   82.2651   11.9057 C.3     1  UNL1        0.0025
     18 C          63.2294   83.3094   12.7211 C.3     1  UNL1        0.0286
     19 H          61.8542   85.6793   13.5304 H       1  UNL1        0.2103
     20 C          63.6328   89.2499   14.5754 C.3     1  UNL1        0.4351
     21 F          63.4911   88.3802   15.7894 F       1  UNL1       -0.1644
     22 F          62.4157   90.0236   14.9877 F       1  UNL1       -0.1644
     23 F          64.8500   88.4761   14.1632 F       1  UNL1       -0.1644
     24 N          65.5805   93.4819   12.2738 N.pl3   1  UNL1       -0.2825
     25 H          65.5884   94.0275   13.0933 H       1  UNL1        0.1551
     26 C          66.4005   93.8970   11.0885 C.ar    1  UNL1        0.0513
     27 C          66.3774   95.3227   10.6228 C.ar    1  UNL1        0.0147
     28 C          67.1975   95.7378    9.4374 C.ar    1  UNL1        0.0021
     29 C          68.0406   94.7273    8.7177 C.ar    1  UNL1        0.0115
     30 C          68.0636   93.3016    9.1834 C.ar    1  UNL1        0.0589
     31 CL         68.9067   92.2910    8.4637 Cl      1  UNL1       -0.0822
     32 C          67.2436   92.8865   10.3688 C.ar    1  UNL1        0.0261
@<TRIPOS>BOND
     1     7     8    2
     2     8     9   am
     3     9    11    1
     4    11    12    1
     5    12    13    1
     6    12    14    1
     7    14    15    1
     8    15    16    1
     9    16    17    1
    10    17    18    1
    11     8     1    1
    12     1     2   ar
    13     2     3   ar
    14     3     4   ar
    15     4    24    1
    16    24    26    1
    17    26    27   ar
    18    27    28   ar
    19    28    29   ar
    20    29    30   ar
    21    30    31    1
    22    30    32   ar
    23     4     5   ar
    24     5     6   ar
    25     6    20    1
    26    20    21    1
    27    20    22    1
    28    20    23    1
    29    18    12    1
    30     6     1   ar
    31    32    26   ar
    32     9    10    1
    33    13    19    1
    34    24    25    1
@<TRIPOS>MOLECULE
*****
 32 34 0 0 0
SMALL
GASTEIGER

@<TRIPOS>ATOM
      1 C          63.2086   90.2264   12.1038 C.ar    1  UNL1        0.0942
      2 C          63.4604   91.2001   10.9909 C.ar    1  UNL1        0.1078
      3 N          64.4635   92.3009   11.1700 N.ar    1  UNL1       -0.2119
      4 C          65.2147   92.4280   12.4622 C.ar    1  UNL1        0.2206
      5 N          64.9629   91.4544   13.5750 N.ar    1  UNL1       -0.2094
      6 C          63.9599   90.3536   13.3959 C.ar    1  UNL1        0.1613
      7 O          60.7880   89.3221   12.3741 O.2     1  UNL1       -0.2700
      8 C          62.2055   89.1257   11.9247 C.2     1  UNL1        0.2489
      9 N          62.6201   87.8283   11.2962 N.am    1  UNL1       -0.2985
     10 H          63.5505   87.6993   11.0012 H       1  UNL1        0.1498
     11 C          61.6171   86.7274   11.1170 C.3     1  UNL1        0.1165
     12 C          61.0899   86.4082    9.7495 C.3     1  UNL1        0.1063
     13 O          59.8926   87.0951   10.3365 O.3     1  UNL1       -0.3851
     14 C          62.4703   85.8322    9.6374 C.3     1  UNL1        0.0286
     15 C          62.9076   85.1756    8.3616 C.3     1  UNL1        0.0025
     16 C          61.9645   85.0950    7.1980 C.3     1  UNL1        0.0002
     17 C          60.5841   85.6711    7.3101 C.3     1  UNL1        0.0025
     18 C          60.1468   86.3277    8.5859 C.3     1  UNL1        0.0286
     19 H          60.0896   87.3669   11.2466 H       1  UNL1        0.2103
     20 C          63.7080   89.3800   14.5088 C.3     1  UNL1        0.4351
     21 F          63.4561   88.4063   15.6217 F       1  UNL1       -0.1644
     22 F          62.7884   90.3671   15.1643 F       1  UNL1       -0.1644
     23 F          64.6276   88.3927   13.8533 F       1  UNL1       -0.1644
     24 N          66.2178   93.5289   12.6412 N.pl3   1  UNL1       -0.2825
     25 H          66.6795   93.6386   13.5038 H       1  UNL1        0.1551
     26 C          66.5175   94.4624   11.5062 C.ar    1  UNL1        0.0513
     27 C          66.1894   95.9211   11.6281 C.ar    1  UNL1        0.0147
     28 C          66.4891   96.8546   10.4930 C.ar    1  UNL1        0.0021
     29 C          67.1169   96.3298    9.2359 C.ar    1  UNL1        0.0115
     30 C          67.4450   94.8711    9.1140 C.ar    1  UNL1        0.0589
     31 CL         68.0728   94.3462    7.8569 Cl      1  UNL1       -0.0822
     32 C          67.1453   93.9376   10.2491 C.ar    1  UNL1        0.0261
@<TRIPOS>BOND
     1     7     8    2
     2     8     9   am
     3     9    11    1
     4    11    12    1
     5    12    13    1
     6    12    14    1
     7    14    15    1
     8    15    16    1
     9    16    17    1
    10    17    18    1
    11     8     1    1
    12     1     2   ar
    13     2     3   ar
    14     3     4   ar
    15     4    24    1
    16    24    26    1
    17    26    27   ar
    18    27    28   ar
    19    28    29   ar
    20    29    30   ar
    21    30    31    1
    22    30    32   ar
    23     4     5   ar
    24     5     6   ar
    25     6    20    1
    26    20    21    1
    27    20    22    1
    28    20    23    1
    29    18    12    1
    30     6     1   ar
    31    32    26   ar
    32     9    10    1
    33    13    19    1
    34    24    25    1
@<TRIPOS>MOLECULE
*****
 32 34 0 0 0
SMALL
GASTEIGER

@<TRIPOS>ATOM
      1 C          63.8306   90.9908   11.9582 C.ar    1  UNL1        0.0942
      2 C          63.2092   91.0099   10.5931 C.ar    1  UNL1        0.1078
      3 N          62.0842   90.0726   10.2679 N.ar    1  UNL1       -0.2119
      4 C          61.5805   89.1162   11.3080 C.ar    1  UNL1        0.2206
      5 N          62.2018   89.0971   12.6730 N.ar    1  UNL1       -0.2094
      6 C          63.3268   90.0344   12.9982 C.ar    1  UNL1        0.1613
      7 O          65.9948   91.5320   13.2900 O.2     1  UNL1       -0.2700
      8 C          64.9556   91.9281   12.2834 C.2     1  UNL1        0.2489
      9 N          65.0414   93.2617   11.6020 N.am    1  UNL1       -0.2985
     10 H          64.3594   93.5217   10.9414 H       1  UNL1        0.1498
     11 C          66.1664   94.1991   11.9272 C.3     1  UNL1        0.1165
     12 C          66.5309   95.2942   10.9692 C.3     1  UNL1        0.1063
     13 O          66.0193   96.1123   12.1176 O.3     1  UNL1       -0.3851
     14 C          66.9160   94.0958   10.1534 C.3     1  UNL1        0.0286
     15 C          67.4878   94.2767    8.7786 C.3     1  UNL1        0.0025
     16 C          67.6746   95.6560    8.2195 C.3     1  UNL1        0.0002
     17 C          67.2896   96.8544    9.0353 C.3     1  UNL1        0.0025
     18 C          66.7177   96.6735   10.4101 C.3     1  UNL1        0.0286
     19 H          65.7383   95.5227   12.8348 H       1  UNL1        0.2103
     20 C          63.9482   90.0153   14.3633 C.3     1  UNL1        0.4351
     21 F          64.5695   89.9963   15.7284 F       1  UNL1       -0.1644
     22 F          63.2873   91.3235   14.6824 F       1  UNL1       -0.1644
     23 F          64.6091   88.7070   14.0442 F       1  UNL1       -0.1644
     24 N          60.4554   88.1789   10.9827 N.pl3   1  UNL1       -0.2825
     25 H          59.6795   88.1134   11.5851 H       1  UNL1        0.1551
     26 C          60.5125   87.3414    9.7397 C.ar    1  UNL1        0.0513
     27 C          59.3398   87.3053    8.8050 C.ar    1  UNL1        0.0147
     28 C          59.3970   86.4678    7.5620 C.ar    1  UNL1        0.0021
     29 C          60.6267   85.6662    7.2535 C.ar    1  UNL1        0.0115
     30 C          61.7994   85.7023    8.1882 C.ar    1  UNL1        0.0589
     31 CL         63.0292   84.9007    7.8798 Cl      1  UNL1       -0.0822
     32 C          61.7422   86.5398    9.4312 C.ar    1  UNL1        0.0261
@<TRIPOS>BOND
     1     7     8    2
     2     8     9   am
     3     9    11    1
     4    11    12    1
     5    12    13    1
     6    12    14    1
     7    14    15    1
     8    15    16    1
     9    16    17    1
    10    17    18    1
    11     8     1    1
    12     1     2   ar
    13     2     3   ar
    14     3     4   ar
    15     4    24    1
    16    24    26    1
    17    26    27   ar
    18    27    28   ar
    19    28    29   ar
    20    29    30   ar
    21    30    31    1
    22    30    32   ar
    23     4     5   ar
    24     5     6   ar
    25     6    20    1
    26    20    21    1
    27    20    22    1
    28    20    23    1
    29    18    12    1
    30     6     1   ar
    31    32    26   ar
    32     9    10    1
    33    13    19    1
    34    24    25    1
@<TRIPOS>MOLECULE
*****
 32 34 0 0 0
SMALL
GASTEIGER

@<TRIPOS>ATOM
      1 C          63.0866   89.0694   12.2467 C.ar    1  UNL1        0.0942
      2 C          64.0076   89.2920   13.4095 C.ar    1  UNL1        0.1078
      3 N          64.7456   90.5909   13.5440 N.ar    1  UNL1       -0.2119
      4 C          64.5624   91.6674   12.5155 C.ar    1  UNL1        0.2206
      5 N          63.6415   91.4449   11.3527 N.ar    1  UNL1       -0.2094
      6 C          62.9035   90.1460   11.2182 C.ar    1  UNL1        0.1613
      7 O          60.8943   87.7685   11.7451 O.2     1  UNL1       -0.2700
      8 C          62.3487   87.7704   12.1122 C.2     1  UNL1        0.2489
      9 N          63.0653   86.4733   12.3448 N.am    1  UNL1       -0.2985
     10 H          64.0198   86.4746   12.5857 H       1  UNL1        0.1498
     11 C          62.3274   85.1743   12.2103 C.3     1  UNL1        0.1165
     12 C          62.7390   83.9892   13.0327 C.3     1  UNL1        0.1063
     13 O          62.6596   85.0354   14.1047 O.3     1  UNL1       -0.3851
     14 C          62.6754   83.3547   11.6751 C.3     1  UNL1        0.0286
     15 C          62.9958   81.8984   11.5122 C.3     1  UNL1        0.0025
     16 C          63.3798   81.0767   12.7069 C.3     1  UNL1        0.0002
     17 C          63.4434   81.7113   14.0645 C.3     1  UNL1        0.0025
     18 C          63.1230   83.1676   14.2274 C.3     1  UNL1        0.0286
     19 H          62.3963   85.8821   13.7114 H       1  UNL1        0.2103
     20 C          61.9825   89.9234   10.0554 C.3     1  UNL1        0.4351
     21 F          61.0614   89.7009    8.8926 F       1  UNL1       -0.1644
     22 F          60.9779   90.8498   10.6738 F       1  UNL1       -0.1644
     23 F          62.9872   88.9970    9.4369 F       1  UNL1       -0.1644
     24 N          65.3004   92.9665   12.6500 N.pl3   1  UNL1       -0.2825
     25 H          65.2454   93.4793   13.4886 H       1  UNL1        0.1551
     26 C          66.1221   93.4841   11.5069 C.ar    1  UNL1        0.0513
     27 C          66.0695   94.9385   11.1436 C.ar    1  UNL1        0.0147
     28 C          66.8912   95.4561   10.0005 C.ar    1  UNL1        0.0021
     29 C          67.7655   94.5195    9.2206 C.ar    1  UNL1        0.0115
     30 C          67.8180   93.0651    9.5839 C.ar    1  UNL1        0.0589
     31 CL         68.6923   92.1283    8.8041 Cl      1  UNL1       -0.0822
     32 C          66.9963   92.5475   10.7270 C.ar    1  UNL1        0.0261
@<TRIPOS>BOND
     1     7     8    2
     2     8     9   am
     3     9    11    1
     4    11    12    1
     5    12    13    1
     6    12    14    1
     7    14    15    1
     8    15    16    1
     9    16    17    1
    10    17    18    1
    11     8     1    1
    12     1     2   ar
    13     2     3   ar
    14     3     4   ar
    15     4    24    1
    16    24    26    1
    17    26    27   ar
    18    27    28   ar
    19    28    29   ar
    20    29    30   ar
    21    30    31    1
    22    30    32   ar
    23     4     5   ar
    24     5     6   ar
    25     6    20    1
    26    20    21    1
    27    20    22    1
    28    20    23    1
    29    18    12    1
    30     6     1   ar
    31    32    26   ar
    32     9    10    1
    33    13    19    1
    34    24    25    1
@<TRIPOS>MOLECULE
*****
 32 34 0 0 0
SMALL
GASTEIGER

@<TRIPOS>ATOM
      1 C          64.1244   89.8105   13.4135 C.ar    1  UNL1        0.0942
      2 C          64.6002   88.8237   14.4381 C.ar    1  UNL1        0.1078
      3 N          64.1419   87.3969   14.3749 N.ar    1  UNL1       -0.2119
      4 C          63.2076   86.9569   13.2870 C.ar    1  UNL1        0.2206
      5 N          62.7317   87.9435   12.2624 N.ar    1  UNL1       -0.2094
      6 C          63.1901   89.3704   12.3256 C.ar    1  UNL1        0.1613
      7 O          64.3364   92.0503   14.7130 O.2     1  UNL1       -0.2700
      8 C          64.5827   91.2373   13.4767 C.2     1  UNL1        0.2489
      9 N          65.2875   91.8513   12.3035 N.am    1  UNL1       -0.2985
     10 H          65.4491   91.3177   11.4920 H       1  UNL1        0.1498
     11 C          65.7459   93.2781   12.3666 C.3     1  UNL1        0.1165
     12 C          66.4614   93.8885   11.1980 C.3     1  UNL1        0.1063
     13 O          65.6771   95.0759   11.6724 O.3     1  UNL1       -0.3851
     14 C          66.9971   92.4891   11.1294 C.3     1  UNL1        0.0286
     15 C          67.9760   92.1126   10.0571 C.3     1  UNL1        0.0025
     16 C          68.4191   93.1354    9.0533 C.3     1  UNL1        0.0002
     17 C          67.8834   94.5347    9.1219 C.3     1  UNL1        0.0025
     18 C          66.9045   94.9113   10.1943 C.3     1  UNL1        0.0286
     19 H          65.1494   94.8263   12.4471 H       1  UNL1        0.2103
     20 C          62.7142   90.3571   11.3011 C.3     1  UNL1        0.4351
     21 F          62.2383   91.3440   10.2765 F       1  UNL1       -0.1644
     22 F          61.5383   90.6921   12.1698 F       1  UNL1       -0.1644
     23 F          63.8902   90.0222   10.4322 F       1  UNL1       -0.1644
     24 N          62.7492   85.5299   13.2238 N.pl3   1  UNL1       -0.2825
     25 H          62.1576   85.1715   13.9243 H       1  UNL1        0.1551
     26 C          63.1923   84.6492   12.0934 C.ar    1  UNL1        0.0513
     27 C          63.9212   83.3700   12.3806 C.ar    1  UNL1        0.0147
     28 C          64.3643   82.4893   11.2501 C.ar    1  UNL1        0.0021
     29 C          64.0785   82.8876    9.8325 C.ar    1  UNL1        0.0115
     30 C          63.3496   84.1668    9.5454 C.ar    1  UNL1        0.0589
     31 CL         63.0638   84.5652    8.1278 Cl      1  UNL1       -0.0822
     32 C          62.9065   85.0475   10.6758 C.ar    1  UNL1        0.0261
@<TRIPOS>BOND
     1     7     8    2
     2     8     9   am
     3     9    11    1
     4    11    12    1
     5    12    13    1
     6    12    14    1
     7    14    15    1
     8    15    16    1
     9    16    17    1
    10    17    18    1
    11     8     1    1
    12     1     2   ar
    13     2     3   ar
    14     3     4   ar
    15     4    24    1
    16    24    26    1
    17    26    27   ar
    18    27    28   ar
    19    28    29   ar
    20    29    30   ar
    21    30    31    1
    22    30    32   ar
    23     4     5   ar
    24     5     6   ar
    25     6    20    1
    26    20    21    1
    27    20    22    1
    28    20    23    1
    29    18    12    1
    30     6     1   ar
    31    32    26   ar
    32     9    10    1
    33    13    19    1
    34    24    25    1
@<TRIPOS>MOLECULE
*****
 32 34 0 0 0
SMALL
GASTEIGER

@<TRIPOS>ATOM
      1 C          63.9024   90.8352   12.0601 C.ar    1  UNL1        0.0942
      2 C          63.4988   90.7319   10.6192 C.ar    1  UNL1        0.1078
      3 N          62.7111   89.5472   10.1439 N.ar    1  UNL1       -0.2119
      4 C          62.3271   88.4656   11.1097 C.ar    1  UNL1        0.2206
      5 N          62.7307   88.5688   12.5506 N.ar    1  UNL1       -0.2094
      6 C          63.5183   89.7535   13.0259 C.ar    1  UNL1        0.1613
      7 O          64.7652   92.3318   14.0006 O.2     1  UNL1       -0.2700
      8 C          64.6901   92.0199   12.5354 C.2     1  UNL1        0.2489
      9 N          65.4028   92.8928   11.5453 N.am    1  UNL1       -0.2985
     10 H          65.3535   92.6881   10.5835 H       1  UNL1        0.1498
     11 C          66.1905   94.0775   12.0205 C.3     1  UNL1        0.1165
     12 C          66.4782   95.2122   11.0825 C.3     1  UNL1        0.1063
     13 O          65.9167   95.9728   12.2470 O.3     1  UNL1       -0.3851
     14 C          66.9397   94.0575   10.2437 C.3     1  UNL1        0.0286
     15 C          67.4939   94.3016    8.8714 C.3     1  UNL1        0.0025
     16 C          67.5866   95.7005    8.3379 C.3     1  UNL1        0.0002
     17 C          67.1250   96.8552    9.1767 C.3     1  UNL1        0.0025
     18 C          66.5709   96.6110   10.5489 C.3     1  UNL1        0.0286
     19 H          65.6780   95.3526   12.9535 H       1  UNL1        0.2103
     20 C          63.9220   89.8568   14.4668 C.3     1  UNL1        0.4351
     21 F          64.3256   89.9600   15.9078 F       1  UNL1       -0.1644
     22 F          62.5250   90.2657   14.8288 F       1  UNL1       -0.1644
     23 F          65.3191   89.4478   14.1048 F       1  UNL1       -0.1644
     24 N          61.5393   87.2808   10.6344 N.pl3   1  UNL1       -0.2825
     25 H          60.5718   87.3656   10.4730 H       1  UNL1        0.1551
     26 C          62.2256   85.9670   10.4049 C.ar    1  UNL1        0.0513
     27 C          62.7580   85.6264    9.0445 C.ar    1  UNL1        0.0147
     28 C          63.4442   84.3125    8.8152 C.ar    1  UNL1        0.0021
     29 C          63.5982   83.3391    9.9460 C.ar    1  UNL1        0.0115
     30 C          63.0658   83.6798   11.3064 C.ar    1  UNL1        0.0589
     31 CL         63.2198   82.7065   12.4374 Cl      1  UNL1       -0.0822
     32 C          62.3795   84.9937   11.5358 C.ar    1  UNL1        0.0261
@<TRIPOS>BOND
     1     7     8    2
     2     8     9   am
     3     9    11    1
     4    11    12    1
     5    12    13    1
     6    12    14    1
     7    14    15    1
     8    15    16    1
     9    16    17    1
    10    17    18    1
    11     8     1    1
    12     1     2   ar
    13     2     3   ar
    14     3     4   ar
    15     4    24    1
    16    24    26    1
    17    26    27   ar
    18    27    28   ar
    19    28    29   ar
    20    29    30   ar
    21    30    31    1
    22    30    32   ar
    23     4     5   ar
    24     5     6   ar
    25     6    20    1
    26    20    21    1
    27    20    22    1
    28    20    23    1
    29    18    12    1
    30     6     1   ar
    31    32    26   ar
    32     9    10    1
    33    13    19    1
    34    24    25    1
@<TRIPOS>MOLECULE
*****
 32 34 0 0 0
SMALL
GASTEIGER

@<TRIPOS>ATOM
      1 C          63.7896   89.6530   12.8976 C.ar    1  UNL1        0.0942
      2 C          64.0211   88.4731   13.7943 C.ar    1  UNL1        0.1078
      3 N          63.3793   87.1544   13.4796 N.ar    1  UNL1       -0.2119
      4 C          62.5059   87.0156   12.2680 C.ar    1  UNL1        0.2206
      5 N          62.2743   88.1954   11.3713 N.ar    1  UNL1       -0.2094
      6 C          62.9161   89.5141   11.6860 C.ar    1  UNL1        0.1613
      7 O          64.1887   91.6261   14.5400 O.2     1  UNL1       -0.2700
      8 C          64.4313   90.9717   13.2123 C.2     1  UNL1        0.2489
      9 N          65.3159   91.6360   12.1992 N.am    1  UNL1       -0.2985
     10 H          65.4751   91.2065   11.3278 H       1  UNL1        0.1498
     11 C          65.9577   92.9547   12.5138 C.3     1  UNL1        0.1165
     12 C          66.5073   93.8046   11.4067 C.3     1  UNL1        0.1063
     13 O          65.7694   94.8469   12.1935 O.3     1  UNL1       -0.3851
     14 C          67.0543   92.4671   11.0044 C.3     1  UNL1        0.0286
     15 C          67.8946   92.3416    9.7682 C.3     1  UNL1        0.0025
     16 C          68.1878   93.5535    8.9344 C.3     1  UNL1        0.0002
     17 C          67.6408   94.8910    9.3367 C.3     1  UNL1        0.0025
     18 C          66.8005   95.0165   10.5729 C.3     1  UNL1        0.0286
     19 H          65.3494   94.4334   12.9639 H       1  UNL1        0.2103
     20 C          62.6845   90.6940   10.7892 C.3     1  UNL1        0.4351
     21 F          62.4530   91.8740    9.8924 F       1  UNL1       -0.1644
     22 F          63.8490   90.2774    9.9405 F       1  UNL1       -0.1644
     23 F          61.5200   91.1107   11.6380 F       1  UNL1       -0.1644
     24 N          61.8641   85.6968   11.9533 N.pl3   1  UNL1       -0.2825
     25 H          60.8830   85.6233   11.9160 H       1  UNL1        0.1551
     26 C          62.7169   84.4902   11.6954 C.ar    1  UNL1        0.0513
     27 C          63.3998   84.3237   10.3703 C.ar    1  UNL1        0.0147
     28 C          64.2527   83.1170   10.1125 C.ar    1  UNL1        0.0021
     29 C          64.4227   82.0768   11.1797 C.ar    1  UNL1        0.0115
     30 C          63.7397   82.2433   12.5049 C.ar    1  UNL1        0.0589
     31 CL         63.9097   81.2031   13.5721 Cl      1  UNL1       -0.0822
     32 C          62.8869   83.4500   12.7626 C.ar    1  UNL1        0.0261
@<TRIPOS>BOND
     1     7     8    2
     2     8     9   am
     3     9    11    1
     4    11    12    1
     5    12    13    1
     6    12    14    1
     7    14    15    1
     8    15    16    1
     9    16    17    1
    10    17    18    1
    11     8     1    1
    12     1     2   ar
    13     2     3   ar
    14     3     4   ar
    15     4    24    1
    16    24    26    1
    17    26    27   ar
    18    27    28   ar
    19    28    29   ar
    20    29    30   ar
    21    30    31    1
    22    30    32   ar
    23     4     5   ar
    24     5     6   ar
    25     6    20    1
    26    20    21    1
    27    20    22    1
    28    20    23    1
    29    18    12    1
    30     6     1   ar
    31    32    26   ar
    32     9    10    1
    33    13    19    1
    34    24    25    1
@<TRIPOS>MOLECULE
*****
 32 34 0 0 0
SMALL
GASTEIGER

@<TRIPOS>ATOM
      1 C          63.8578   89.7087   12.8758 C.ar    1  UNL1        0.0942
      2 C          63.3387   88.4422   12.2623 C.ar    1  UNL1        0.1078
      3 N          63.4414   87.1480   13.0135 N.ar    1  UNL1       -0.2119
      4 C          64.0633   87.1202   14.3782 C.ar    1  UNL1        0.2206
      5 N          64.5825   88.3867   14.9917 N.ar    1  UNL1       -0.2094
      6 C          64.4798   89.6809   14.2405 C.ar    1  UNL1        0.1613
      7 O          62.4316   91.4506   11.5789 O.2     1  UNL1       -0.2700
      8 C          63.7551   91.0030   12.1246 C.2     1  UNL1        0.2489
      9 N          64.9761   91.8498   11.9192 N.am    1  UNL1       -0.2985
     10 H          65.8448   91.5561   12.2774 H       1  UNL1        0.1498
     11 C          64.8735   93.1441   11.1681 C.3     1  UNL1        0.1165
     12 C          66.0404   93.6411   10.3672 C.3     1  UNL1        0.1063
     13 O          65.1099   94.8089   10.2242 O.3     1  UNL1       -0.3851
     14 C          66.5656   92.3008   10.7884 C.3     1  UNL1        0.0286
     15 C          67.9345   91.8630   10.3590 C.3     1  UNL1        0.0025
     16 C          68.7782   92.7657    9.5084 C.3     1  UNL1        0.0002
     17 C          68.2529   94.1061    9.0872 C.3     1  UNL1        0.0025
     18 C          66.8840   94.5438    9.5166 C.3     1  UNL1        0.0286
     19 H          64.2870   94.6274   10.7046 H       1  UNL1        0.2103
     20 C          64.9989   90.9475   14.8540 C.3     1  UNL1        0.4351
     21 F          65.5181   92.2140   15.4675 F       1  UNL1       -0.1644
     22 F          63.6372   91.2347   15.4135 F       1  UNL1       -0.1644
     23 F          66.3608   90.6603   14.2945 F       1  UNL1       -0.1644
     24 N          64.1660   85.8259   15.1294 N.pl3   1  UNL1       -0.2825
     25 H          64.5317   85.8149   16.0434 H       1  UNL1        0.1551
     26 C          63.7117   84.5484   14.4880 C.ar    1  UNL1        0.0513
     27 C          62.6557   83.7120   15.1480 C.ar    1  UNL1        0.0147
     28 C          62.2014   82.4345   14.5065 C.ar    1  UNL1        0.0021
     29 C          62.8029   81.9933   13.2052 C.ar    1  UNL1        0.0115
     30 C          63.8588   82.8297   12.5452 C.ar    1  UNL1        0.0589
     31 CL         64.4603   82.3886   11.2439 Cl      1  UNL1       -0.0822
     32 C          64.3131   84.1072   13.1867 C.ar    1  UNL1        0.0261
@<TRIPOS>BOND
     1     7     8    2
     2     8     9   am
     3     9    11    1
     4    11    12    1
     5    12    13    1
     6    12    14    1
     7    14    15    1
     8    15    16    1
     9    16    17    1
    10    17    18    1
    11     8     1    1
    12     1     2   ar
    13     2     3   ar
    14     3     4   ar
    15     4    24    1
    16    24    26    1
    17    26    27   ar
    18    27    28   ar
    19    28    29   ar
    20    29    30   ar
    21    30    31    1
    22    30    32   ar
    23     4     5   ar
    24     5     6   ar
    25     6    20    1
    26    20    21    1
    27    20    22    1
    28    20    23    1
    29    18    12    1
    30     6     1   ar
    31    32    26   ar
    32     9    10    1
    33    13    19    1
    34    24    25    1
