@<TRIPOS>MOLECULE
*****
 31 35 0 0 0
SMALL
GASTEIGER

@<TRIPOS>ATOM
      1 C          64.7080   90.0173   14.2585 C.ar    1  UNL1        0.0670
      2 C          64.1405   90.5514   12.9769 C.ar    1  UNL1        0.0191
      3 C          64.5897   91.8843   12.4558 C.ar    1  UNL1        0.0203
      4 C          65.6063   92.6831   13.2164 C.ar    1  UNL1        0.0802
      5 C          66.1737   92.1490   14.4980 C.ar    1  UNL1        0.0396
      6 C          67.1539   93.1545   15.0255 C.ar    1  UNL1        0.1216
      7 N          67.1922   94.3100   14.0699 N.ar    1  UNL1       -0.1672
      8 N          66.2357   94.0188   12.9518 N.ar    1  UNL1       -0.2384
      9 C          65.7246   90.8161   15.0191 C.ar    1  UNL1        0.0207
     10 O          63.1524   89.8544   16.8185 O.2     1  UNL1       -0.2665
     11 C          63.4810   88.6028   16.0597 C.ar    1  UNL1        0.2679
     12 C          63.0319   87.2700   16.5808 C.ar    1  UNL1        0.0980
     13 C          63.3605   86.0184   15.8220 C.ar    1  UNL1        0.1453
     14 C          64.1383   86.0999   14.5420 C.ar    1  UNL1        0.0561
     15 C          64.5875   87.4329   14.0208 C.ar    1  UNL1        0.0860
     16 N          64.2588   88.6843   14.7797 N.ar    1  UNL1       -0.2729
     17 O          62.9114   84.6856   16.3431 O.3     1  UNL1       -0.4704
     18 C          61.9002   83.8835   15.5789 C.3     1  UNL1        0.2320
     19 C          62.3540   82.8485   14.5925 C.ar    1  UNL1        0.0212
     20 C          61.5449   81.6023   14.3874 C.ar    1  UNL1       -0.0007
     21 C          61.9987   80.5674   13.4010 C.ar    1  UNL1       -0.0002
     22 C          63.2616   80.7787   12.6198 C.ar    1  UNL1       -0.0000
     23 C          64.0708   82.0249   12.8250 C.ar    1  UNL1       -0.0002
     24 C          63.6169   83.0599   13.8113 C.ar    1  UNL1       -0.0007
     25 C          65.9575   94.9070   11.7755 C.3     1  UNL1        0.2431
     26 C          66.6335   94.6461   10.4622 C.2     1  UNL1        0.3168
     27 N          67.6680   93.5927   10.1969 N.2     1  UNL1       -0.0631
     28 C          68.0675   93.6882    8.7543 C.3     1  UNL1        0.3130
     29 C          67.2799   94.8006    8.1278 C.3     1  UNL1        0.2575
     30 N          66.3937   95.3925    9.1834 N.pl3   1  UNL1       -0.2173
     31 H          65.7650   96.1398    9.0587 H       1  UNL1        0.2921
@<TRIPOS>BOND
     1    10    11    2
     2    11    12   ar
     3    12    13   ar
     4    13    17    1
     5    17    18    1
     6    18    19    1
     7    19    20   ar
     8    20    21   ar
     9    21    22   ar
    10    22    23   ar
    11    23    24   ar
    12    13    14   ar
    13    14    15   ar
    14    15    16   ar
    15    16     1    1
    16     1     2   ar
    17     2     3   ar
    18     3     4   ar
    19     4     5   ar
    20     5     6   ar
    21     6     7   ar
    22     7     8   ar
    23     8    25    1
    24    25    26    1
    25    26    27    2
    26    27    28    1
    27    28    29    1
    28    29    30    1
    29     5     9   ar
    30    16    11   ar
    31     9     1   ar
    32    24    19   ar
    33     8     4   ar
    34    30    26    1
    35    30    31    1
@<TRIPOS>MOLECULE
*****
 31 35 0 0 0
SMALL
GASTEIGER

@<TRIPOS>ATOM
      1 C          61.7284   85.9443   10.0178 C.ar    1  UNL1        0.0670
      2 C          61.5784   86.1251   11.4992 C.ar    1  UNL1        0.0191
      3 C          62.3577   85.2583   12.4433 C.ar    1  UNL1        0.0203
      4 C          63.2870   84.2107   11.9058 C.ar    1  UNL1        0.0802
      5 C          63.4370   84.0298   10.4244 C.ar    1  UNL1        0.0396
      6 C          64.4215   82.9227   10.1899 C.ar    1  UNL1        0.1216
      7 N          64.8800   82.4193   11.5265 N.ar    1  UNL1       -0.1672
      8 N          64.1789   83.2153   12.5870 N.ar    1  UNL1       -0.2384
      9 C          62.6577   84.8966    9.4803 C.ar    1  UNL1        0.0207
     10 O          61.7255   88.9233   10.3721 O.2     1  UNL1       -0.2665
     11 C          60.9476   88.3006    9.2508 C.ar    1  UNL1        0.2679
     12 C          60.1683   89.1674    8.3067 C.ar    1  UNL1        0.0980
     13 C          59.3904   88.5448    7.1854 C.ar    1  UNL1        0.1453
     14 C          59.3919   87.0553    7.0083 C.ar    1  UNL1        0.0561
     15 C          60.1712   86.1884    7.9524 C.ar    1  UNL1        0.0860
     16 N          60.9490   86.8111    9.0736 N.ar    1  UNL1       -0.2729
     17 O          58.6111   89.4116    6.2414 O.3     1  UNL1       -0.4704
     18 C          58.9152   90.8773    6.1446 C.3     1  UNL1        0.2320
     19 C          59.7345   91.3994    5.0017 C.ar    1  UNL1        0.0212
     20 C          61.1477   90.9321    4.8169 C.ar    1  UNL1       -0.0007
     21 C          61.9670   91.4542    3.6741 C.ar    1  UNL1       -0.0002
     22 C          61.3729   92.4438    2.7160 C.ar    1  UNL1       -0.0000
     23 C          59.9597   92.9112    2.9008 C.ar    1  UNL1       -0.0002
     24 C          59.1404   92.3890    4.0437 C.ar    1  UNL1       -0.0007
     25 C          64.3410   83.0457   14.0685 C.3     1  UNL1        0.2431
     26 C          63.8076   84.0885   15.0056 C.2     1  UNL1        0.3168
     27 N          62.4504   84.0884   15.6445 N.2     1  UNL1       -0.0631
     28 C          62.3416   85.3143   16.5020 C.3     1  UNL1        0.3130
     29 C          63.6316   86.0721   16.3932 C.3     1  UNL1        0.2575
     30 N          64.5376   85.3145   15.4684 N.pl3   1  UNL1       -0.2173
     31 H          65.4510   85.5760   15.2104 H       1  UNL1        0.2921
@<TRIPOS>BOND
     1    10    11    2
     2    11    12   ar
     3    12    13   ar
     4    13    17    1
     5    17    18    1
     6    18    19    1
     7    19    20   ar
     8    20    21   ar
     9    21    22   ar
    10    22    23   ar
    11    23    24   ar
    12    13    14   ar
    13    14    15   ar
    14    15    16   ar
    15    16     1    1
    16     1     2   ar
    17     2     3   ar
    18     3     4   ar
    19     4     5   ar
    20     5     6   ar
    21     6     7   ar
    22     7     8   ar
    23     8    25    1
    24    25    26    1
    25    26    27    2
    26    27    28    1
    27    28    29    1
    28    29    30    1
    29     5     9   ar
    30    16    11   ar
    31     9     1   ar
    32    24    19   ar
    33     8     4   ar
    34    30    26    1
    35    30    31    1
@<TRIPOS>MOLECULE
*****
 31 35 0 0 0
SMALL
GASTEIGER

@<TRIPOS>ATOM
      1 C          61.7459   86.7793   10.5487 C.ar    1  UNL1        0.0670
      2 C          61.8452   85.2841   10.6149 C.ar    1  UNL1        0.0191
      3 C          62.6169   84.6321   11.7236 C.ar    1  UNL1        0.0203
      4 C          63.2893   85.4754   12.7661 C.ar    1  UNL1        0.0802
      5 C          63.1901   86.9706   12.6999 C.ar    1  UNL1        0.0396
      6 C          63.9524   87.5376   13.8607 C.ar    1  UNL1        0.1216
      7 N          64.5228   86.3927   14.6443 N.ar    1  UNL1       -0.1672
      8 N          64.1130   85.1182   13.9679 N.ar    1  UNL1       -0.2384
      9 C          62.4184   87.6226   11.5912 C.ar    1  UNL1        0.0207
     10 O          61.6770   89.7703   10.3264 O.2     1  UNL1       -0.2665
     11 C          60.9397   88.9269    9.3288 C.ar    1  UNL1        0.2679
     12 C          60.1681   89.5790    8.2201 C.ar    1  UNL1        0.0980
     13 C          59.4308   88.7356    7.2224 C.ar    1  UNL1        0.1453
     14 C          59.4653   87.2401    7.3336 C.ar    1  UNL1        0.0561
     15 C          60.2370   86.5880    8.4424 C.ar    1  UNL1        0.0860
     16 N          60.9742   87.4314    9.4399 N.ar    1  UNL1       -0.2729
     17 O          58.6591   89.3877    6.1137 O.3     1  UNL1       -0.4704
     18 C          58.7576   90.8694    5.9021 C.3     1  UNL1        0.2320
     19 C          59.6657   91.4167    4.8410 C.ar    1  UNL1        0.0212
     20 C          59.1495   92.4274    3.8602 C.ar    1  UNL1       -0.0007
     21 C          60.0576   92.9747    2.7992 C.ar    1  UNL1       -0.0002
     22 C          61.4820   92.5113    2.7190 C.ar    1  UNL1       -0.0000
     23 C          61.9983   91.5007    3.6998 C.ar    1  UNL1       -0.0002
     24 C          61.0901   90.9534    4.7608 C.ar    1  UNL1       -0.0007
     25 C          64.4651   83.7303   14.4147 C.3     1  UNL1        0.2431
     26 C          63.5253   82.5935   14.1415 C.2     1  UNL1        0.3168
     27 N          63.7256   81.5088   13.1248 N.2     1  UNL1       -0.0631
     28 C          62.5444   80.5867   13.1920 C.3     1  UNL1        0.3130
     29 C          61.6141   81.1014   14.2502 C.3     1  UNL1        0.2575
     30 N          62.2204   82.3416   14.8370 N.pl3   1  UNL1       -0.2173
     31 H          61.8303   82.8934   15.5529 H       1  UNL1        0.2921
@<TRIPOS>BOND
     1    10    11    2
     2    11    12   ar
     3    12    13   ar
     4    13    17    1
     5    17    18    1
     6    18    19    1
     7    19    20   ar
     8    20    21   ar
     9    21    22   ar
    10    22    23   ar
    11    23    24   ar
    12    13    14   ar
    13    14    15   ar
    14    15    16   ar
    15    16     1    1
    16     1     2   ar
    17     2     3   ar
    18     3     4   ar
    19     4     5   ar
    20     5     6   ar
    21     6     7   ar
    22     7     8   ar
    23     8    25    1
    24    25    26    1
    25    26    27    2
    26    27    28    1
    27    28    29    1
    28    29    30    1
    29     5     9   ar
    30    16    11   ar
    31     9     1   ar
    32    24    19   ar
    33     8     4   ar
    34    30    26    1
    35    30    31    1
@<TRIPOS>MOLECULE
*****
 31 35 0 0 0
SMALL
GASTEIGER

@<TRIPOS>ATOM
      1 C          64.3417   89.1320   14.8342 C.ar    1  UNL1        0.0670
      2 C          64.6469   87.8801   14.0665 C.ar    1  UNL1        0.0191
      3 C          64.1922   86.5499   14.5897 C.ar    1  UNL1        0.0203
      4 C          63.4325   86.4716   15.8807 C.ar    1  UNL1        0.0802
      5 C          63.1273   87.7235   16.6484 C.ar    1  UNL1        0.0396
      6 C          62.3662   87.3370   17.8818 C.ar    1  UNL1        0.1216
      7 N          62.2010   85.8461   17.8764 N.ar    1  UNL1       -0.1672
      8 N          62.8599   85.3112   16.6396 N.ar    1  UNL1       -0.2384
      9 C          63.5820   89.0537   16.1252 C.ar    1  UNL1        0.0207
     10 O          63.1434   90.2435   12.3185 O.2     1  UNL1       -0.2665
     11 C          64.1972   91.0180   13.0532 C.ar    1  UNL1        0.2679
     12 C          64.6517   92.3483   12.5299 C.ar    1  UNL1        0.0980
     13 C          65.7055   93.1228   13.2645 C.ar    1  UNL1        0.1453
     14 C          66.3047   92.5671   14.5224 C.ar    1  UNL1        0.0561
     15 C          65.8501   91.2368   15.0456 C.ar    1  UNL1        0.0860
     16 N          64.7963   90.4623   14.3110 N.ar    1  UNL1       -0.2729
     17 O          66.1601   94.4531   12.7413 O.3     1  UNL1       -0.4704
     18 C          66.0983   94.7414   11.2706 C.3     1  UNL1        0.2320
     19 C          66.9742   93.9807   10.3197 C.ar    1  UNL1        0.0212
     20 C          67.4187   94.6176    9.0365 C.ar    1  UNL1       -0.0007
     21 C          68.2946   93.8569    8.0857 C.ar    1  UNL1       -0.0002
     22 C          68.7259   92.4593    8.4180 C.ar    1  UNL1       -0.0000
     23 C          68.2814   91.8223    9.7012 C.ar    1  UNL1       -0.0002
     24 C          67.4055   92.5830   10.6520 C.ar    1  UNL1       -0.0007
     25 C          62.9335   83.8693   16.2331 C.3     1  UNL1        0.2431
     26 C          63.0718   83.5045   14.7847 C.2     1  UNL1        0.3168
     27 N          62.3197   84.1236   13.6439 N.2     1  UNL1       -0.0631
     28 C          62.7695   83.4584   12.3769 C.3     1  UNL1        0.3130
     29 C          63.7994   82.4281   12.7346 C.3     1  UNL1        0.2575
     30 N          63.9862   82.4567   14.2226 N.pl3   1  UNL1       -0.2173
     31 H          64.6011   81.8876   14.7397 H       1  UNL1        0.2921
@<TRIPOS>BOND
     1    10    11    2
     2    11    12   ar
     3    12    13   ar
     4    13    17    1
     5    17    18    1
     6    18    19    1
     7    19    20   ar
     8    20    21   ar
     9    21    22   ar
    10    22    23   ar
    11    23    24   ar
    12    13    14   ar
    13    14    15   ar
    14    15    16   ar
    15    16     1    1
    16     1     2   ar
    17     2     3   ar
    18     3     4   ar
    19     4     5   ar
    20     5     6   ar
    21     6     7   ar
    22     7     8   ar
    23     8    25    1
    24    25    26    1
    25    26    27    2
    26    27    28    1
    27    28    29    1
    28    29    30    1
    29     5     9   ar
    30    16    11   ar
    31     9     1   ar
    32    24    19   ar
    33     8     4   ar
    34    30    26    1
    35    30    31    1
@<TRIPOS>MOLECULE
*****
 31 35 0 0 0
SMALL
GASTEIGER

@<TRIPOS>ATOM
      1 C          63.3387   90.9081   11.3631 C.ar    1  UNL1        0.0670
      2 C          63.5239   91.1394   12.8335 C.ar    1  UNL1        0.0191
      3 C          64.5312   92.1416   13.3140 C.ar    1  UNL1        0.0203
      4 C          65.3532   92.9125   12.3242 C.ar    1  UNL1        0.0802
      5 C          65.1681   92.6813   10.8537 C.ar    1  UNL1        0.0396
      6 C          66.1153   93.5834   10.1197 C.ar    1  UNL1        0.1216
      7 N          66.8860   94.3723   11.1365 N.ar    1  UNL1       -0.1672
      8 N          66.4150   93.9577   12.4990 N.ar    1  UNL1       -0.2384
      9 C          64.1608   91.6791   10.3732 C.ar    1  UNL1        0.0207
     10 O          63.3271   88.1309   12.4974 O.2     1  UNL1       -0.2665
     11 C          62.3256   88.5173   11.4496 C.ar    1  UNL1        0.2679
     12 C          61.3184   87.5150   10.9690 C.ar    1  UNL1        0.0980
     13 C          60.3169   87.9014    9.9212 C.ar    1  UNL1        0.1453
     14 C          60.3227   89.2900    9.3541 C.ar    1  UNL1        0.0561
     15 C          61.3300   90.2923    9.8347 C.ar    1  UNL1        0.0860
     16 N          62.3314   89.9059   10.8824 N.ar    1  UNL1       -0.2729
     17 O          59.3097   86.8992    9.4407 O.3     1  UNL1       -0.4704
     18 C          59.3495   86.4176    8.0207 C.3     1  UNL1        0.2320
     19 C          60.5645   85.7055    7.5040 C.ar    1  UNL1        0.0212
     20 C          60.4807   84.8976    6.2429 C.ar    1  UNL1       -0.0007
     21 C          61.6956   84.1856    5.7263 C.ar    1  UNL1       -0.0002
     22 C          62.9943   84.2814    6.4708 C.ar    1  UNL1       -0.0000
     23 C          63.0781   85.0892    7.7319 C.ar    1  UNL1       -0.0002
     24 C          61.8632   85.8013    8.2485 C.ar    1  UNL1       -0.0007
     25 C          66.9175   94.4939   13.8066 C.3     1  UNL1        0.2431
     26 C          67.5039   93.5609   14.8242 C.2     1  UNL1        0.3168
     27 N          68.9095   93.0371   14.8335 N.2     1  UNL1       -0.0631
     28 C          69.0621   92.1403   16.0262 C.3     1  UNL1        0.3130
     29 C          67.7508   92.1099   16.7540 C.3     1  UNL1        0.2575
     30 N          66.7879   92.9878   16.0112 N.pl3   1  UNL1       -0.2173
     31 H          65.8504   93.1580   16.2591 H       1  UNL1        0.2921
@<TRIPOS>BOND
     1    10    11    2
     2    11    12   ar
     3    12    13   ar
     4    13    17    1
     5    17    18    1
     6    18    19    1
     7    19    20   ar
     8    20    21   ar
     9    21    22   ar
    10    22    23   ar
    11    23    24   ar
    12    13    14   ar
    13    14    15   ar
    14    15    16   ar
    15    16     1    1
    16     1     2   ar
    17     2     3   ar
    18     3     4   ar
    19     4     5   ar
    20     5     6   ar
    21     6     7   ar
    22     7     8   ar
    23     8    25    1
    24    25    26    1
    25    26    27    2
    26    27    28    1
    27    28    29    1
    28    29    30    1
    29     5     9   ar
    30    16    11   ar
    31     9     1   ar
    32    24    19   ar
    33     8     4   ar
    34    30    26    1
    35    30    31    1
@<TRIPOS>MOLECULE
*****
 31 35 0 0 0
SMALL
GASTEIGER

@<TRIPOS>ATOM
      1 C          62.9743   90.4190   11.4650 C.ar    1  UNL1        0.0670
      2 C          63.6575   91.4630   10.6324 C.ar    1  UNL1        0.0191
      3 C          64.6700   92.3764   11.2575 C.ar    1  UNL1        0.0203
      4 C          64.9992   92.2457   12.7150 C.ar    1  UNL1        0.0802
      5 C          64.3159   91.2017   13.5476 C.ar    1  UNL1        0.0396
      6 C          64.8415   91.3089   14.9484 C.ar    1  UNL1        0.1216
      7 N          65.8496   92.4192   14.9816 N.ar    1  UNL1       -0.1672
      8 N          65.9471   92.9982   13.6013 N.ar    1  UNL1       -0.2384
      9 C          63.3035   90.2884   12.9226 C.ar    1  UNL1        0.0207
     10 O          62.8340   87.5407   12.2989 O.2     1  UNL1       -0.2665
     11 C          61.8916   88.0664   11.2570 C.ar    1  UNL1        0.2679
     12 C          60.8792   87.1530   10.6320 C.ar    1  UNL1        0.0980
     13 C          59.9368   87.6788    9.5901 C.ar    1  UNL1        0.1453
     14 C          60.0069   89.1180    9.1731 C.ar    1  UNL1        0.0561
     15 C          61.0195   90.0314    9.7981 C.ar    1  UNL1        0.0860
     16 N          61.9618   89.5056   10.8400 N.ar    1  UNL1       -0.2729
     17 O          58.9244   86.7654    8.9651 O.3     1  UNL1       -0.4704
     18 C          59.1703   86.1956    7.5996 C.3     1  UNL1        0.2320
     19 C          60.5000   85.5845    7.2702 C.ar    1  UNL1        0.0212
     20 C          60.6576   84.7545    6.0308 C.ar    1  UNL1       -0.0007
     21 C          61.9874   84.1435    5.7014 C.ar    1  UNL1       -0.0002
     22 C          63.1595   84.3625    6.6115 C.ar    1  UNL1       -0.0000
     23 C          63.0018   85.1926    7.8509 C.ar    1  UNL1       -0.0002
     24 C          61.6721   85.8036    8.1802 C.ar    1  UNL1       -0.0007
     25 C          66.8363   94.1307   13.1810 C.3     1  UNL1        0.2431
     26 C          66.6414   94.7806   11.8432 C.2     1  UNL1        0.3168
     27 N          67.3570   94.4199   10.5751 N.2     1  UNL1       -0.0631
     28 C          66.8546   95.3216    9.4868 C.3     1  UNL1        0.3130
     29 C          65.8284   96.2396   10.0822 C.3     1  UNL1        0.2575
     30 N          65.6967   95.9052   11.5385 N.pl3   1  UNL1       -0.2173
     31 H          65.0958   96.3464   12.1814 H       1  UNL1        0.2921
@<TRIPOS>BOND
     1    10    11    2
     2    11    12   ar
     3    12    13   ar
     4    13    17    1
     5    17    18    1
     6    18    19    1
     7    19    20   ar
     8    20    21   ar
     9    21    22   ar
    10    22    23   ar
    11    23    24   ar
    12    13    14   ar
    13    14    15   ar
    14    15    16   ar
    15    16     1    1
    16     1     2   ar
    17     2     3   ar
    18     3     4   ar
    19     4     5   ar
    20     5     6   ar
    21     6     7   ar
    22     7     8   ar
    23     8    25    1
    24    25    26    1
    25    26    27    2
    26    27    28    1
    27    28    29    1
    28    29    30    1
    29     5     9   ar
    30    16    11   ar
    31     9     1   ar
    32    24    19   ar
    33     8     4   ar
    34    30    26    1
    35    30    31    1
@<TRIPOS>MOLECULE
*****
 31 35 0 0 0
SMALL
GASTEIGER

@<TRIPOS>ATOM
      1 C          63.5738   87.2081   13.3353 C.ar    1  UNL1        0.0670
      2 C          62.6260   86.4985   12.4145 C.ar    1  UNL1        0.0191
      3 C          62.3378   85.0400   12.6136 C.ar    1  UNL1        0.0203
      4 C          62.9974   84.2912   13.7335 C.ar    1  UNL1        0.0802
      5 C          63.9453   85.0008   14.6543 C.ar    1  UNL1        0.0396
      6 C          64.4421   84.0081   15.6631 C.ar    1  UNL1        0.1216
      7 N          63.8013   82.6849   15.3658 N.ar    1  UNL1       -0.1672
      8 N          62.9084   82.8598   14.1732 N.ar    1  UNL1       -0.2384
      9 C          64.2335   86.4593   14.4552 C.ar    1  UNL1        0.0207
     10 O          62.5175   88.6289   10.9134 O.2     1  UNL1       -0.2665
     11 C          63.3339   89.3771   11.9253 C.ar    1  UNL1        0.2679
     12 C          63.6222   90.8356   11.7261 C.ar    1  UNL1        0.0980
     13 C          64.4386   91.5838   12.7380 C.ar    1  UNL1        0.1453
     14 C          64.9667   90.8734   13.9489 C.ar    1  UNL1        0.0561
     15 C          64.6785   89.4148   14.1480 C.ar    1  UNL1        0.0860
     16 N          63.8621   88.6667   13.1362 N.ar    1  UNL1       -0.2729
     17 O          64.7268   93.0423   12.5389 O.3     1  UNL1       -0.4704
     18 C          66.1453   93.5197   12.4397 C.3     1  UNL1        0.2320
     19 C          66.8727   93.4428   11.1301 C.ar    1  UNL1        0.0212
     20 C          67.6178   92.1952   10.7581 C.ar    1  UNL1       -0.0007
     21 C          68.3452   92.1183    9.4486 C.ar    1  UNL1       -0.0002
     22 C          68.3275   93.2891    8.5110 C.ar    1  UNL1       -0.0000
     23 C          67.5824   94.5366    8.8829 C.ar    1  UNL1       -0.0002
     24 C          66.8550   94.6135   10.1925 C.ar    1  UNL1       -0.0007
     25 C          62.0732   81.7910   13.5328 C.3     1  UNL1        0.2431
     26 C          62.5280   81.1480   12.2562 C.2     1  UNL1        0.3168
     27 N          63.0945   81.8598   11.0635 N.2     1  UNL1       -0.0631
     28 C          63.4128   80.8320   10.0183 C.3     1  UNL1        0.3130
     29 C          63.0430   79.4850   10.5650 C.3     1  UNL1        0.2575
     30 N          62.4962   79.6803   11.9481 N.pl3   1  UNL1       -0.2173
     31 H          62.1731   78.9699   12.5482 H       1  UNL1        0.2921
@<TRIPOS>BOND
     1    10    11    2
     2    11    12   ar
     3    12    13   ar
     4    13    17    1
     5    17    18    1
     6    18    19    1
     7    19    20   ar
     8    20    21   ar
     9    21    22   ar
    10    22    23   ar
    11    23    24   ar
    12    13    14   ar
    13    14    15   ar
    14    15    16   ar
    15    16     1    1
    16     1     2   ar
    17     2     3   ar
    18     3     4   ar
    19     4     5   ar
    20     5     6   ar
    21     6     7   ar
    22     7     8   ar
    23     8    25    1
    24    25    26    1
    25    26    27    2
    26    27    28    1
    27    28    29    1
    28    29    30    1
    29     5     9   ar
    30    16    11   ar
    31     9     1   ar
    32    24    19   ar
    33     8     4   ar
    34    30    26    1
    35    30    31    1
@<TRIPOS>MOLECULE
*****
 31 35 0 0 0
SMALL
GASTEIGER

@<TRIPOS>ATOM
      1 C          64.0266   88.4131   13.6104 C.ar    1  UNL1        0.0670
      2 C          64.9207   89.2608   14.4659 C.ar    1  UNL1        0.0191
      3 C          65.2791   90.6504   14.0294 C.ar    1  UNL1        0.0203
      4 C          64.7434   91.1922   12.7373 C.ar    1  UNL1        0.0802
      5 C          63.8493   90.3446   11.8818 C.ar    1  UNL1        0.0396
      6 C          63.4757   91.1432   10.6683 C.ar    1  UNL1        0.1216
      7 N          64.1389   92.4844   10.7738 N.ar    1  UNL1       -0.1672
      8 N          64.9224   92.5148   12.0525 N.ar    1  UNL1       -0.2384
      9 C          63.4909   88.9550   12.3184 C.ar    1  UNL1        0.0207
     10 O          62.4676   86.6206   11.7783 O.2     1  UNL1       -0.2665
     11 C          62.8886   86.1272   13.1309 C.ar    1  UNL1        0.2679
     12 C          62.5301   84.7377   13.5674 C.ar    1  UNL1        0.0980
     13 C          62.9512   84.2443   14.9200 C.ar    1  UNL1        0.1453
     14 C          63.7307   85.1405   15.8360 C.ar    1  UNL1        0.0561
     15 C          64.0891   86.5302   15.3995 C.ar    1  UNL1        0.0860
     16 N          63.6681   87.0235   14.0470 N.ar    1  UNL1       -0.2729
     17 O          62.5927   82.8547   15.3565 O.3     1  UNL1       -0.4704
     18 C          63.1626   81.6709   14.6328 C.3     1  UNL1        0.2320
     19 C          63.4217   81.7472   13.1573 C.ar    1  UNL1        0.0212
     20 C          64.4454   82.7052   12.6242 C.ar    1  UNL1       -0.0007
     21 C          64.7045   82.7815   11.1487 C.ar    1  UNL1       -0.0002
     22 C          63.9398   81.8998   10.2064 C.ar    1  UNL1       -0.0000
     23 C          62.9161   80.9419   10.7395 C.ar    1  UNL1       -0.0002
     24 C          62.6570   80.8656   12.2150 C.ar    1  UNL1       -0.0007
     25 C          65.7412   93.6656   12.5578 C.3     1  UNL1        0.2431
     26 C          66.2429   94.7062   11.6010 C.2     1  UNL1        0.3168
     27 N          67.1650   94.4671   10.4422 N.2     1  UNL1       -0.0631
     28 C          67.4027   95.7817    9.7601 C.3     1  UNL1        0.3130
     29 C          66.6276   96.8333   10.4973 C.3     1  UNL1        0.2575
     30 N          65.9109   96.1686   11.6351 N.pl3   1  UNL1       -0.2173
     31 H          65.3254   96.6140   12.2893 H       1  UNL1        0.2921
@<TRIPOS>BOND
     1    10    11    2
     2    11    12   ar
     3    12    13   ar
     4    13    17    1
     5    17    18    1
     6    18    19    1
     7    19    20   ar
     8    20    21   ar
     9    21    22   ar
    10    22    23   ar
    11    23    24   ar
    12    13    14   ar
    13    14    15   ar
    14    15    16   ar
    15    16     1    1
    16     1     2   ar
    17     2     3   ar
    18     3     4   ar
    19     4     5   ar
    20     5     6   ar
    21     6     7   ar
    22     7     8   ar
    23     8    25    1
    24    25    26    1
    25    26    27    2
    26    27    28    1
    27    28    29    1
    28    29    30    1
    29     5     9   ar
    30    16    11   ar
    31     9     1   ar
    32    24    19   ar
    33     8     4   ar
    34    30    26    1
    35    30    31    1
@<TRIPOS>MOLECULE
*****
 31 35 0 0 0
SMALL
GASTEIGER

@<TRIPOS>ATOM
      1 C          63.9934   88.2939   13.6720 C.ar    1  UNL1        0.0670
      2 C          64.8503   89.1153   14.5890 C.ar    1  UNL1        0.0191
      3 C          65.2216   90.5187   14.2117 C.ar    1  UNL1        0.0203
      4 C          64.7361   91.1007   12.9172 C.ar    1  UNL1        0.0802
      5 C          63.8792   90.2793   12.0002 C.ar    1  UNL1        0.0396
      6 C          63.5517   91.1157   10.7989 C.ar    1  UNL1        0.1216
      7 N          64.2062   92.4540   10.9734 N.ar    1  UNL1       -0.1672
      8 N          64.9382   92.4448   12.2826 N.ar    1  UNL1       -0.2384
      9 C          63.5079   88.8759   12.3776 C.ar    1  UNL1        0.0207
     10 O          62.3302   86.6302   11.8103 O.2     1  UNL1       -0.2665
     11 C          62.7904   86.0585   13.1185 C.ar    1  UNL1        0.2679
     12 C          62.4191   84.6551   13.4958 C.ar    1  UNL1        0.0980
     13 C          62.8793   84.0834   14.8041 C.ar    1  UNL1        0.1453
     14 C          63.7109   84.9152   15.7350 C.ar    1  UNL1        0.0561
     15 C          64.0823   86.3187   15.3576 C.ar    1  UNL1        0.0860
     16 N          63.6220   86.8904   14.0494 N.ar    1  UNL1       -0.2729
     17 O          62.5079   82.6800   15.1814 O.3     1  UNL1       -0.4704
     18 C          63.0776   81.5221   14.4168 C.3     1  UNL1        0.2320
     19 C          63.4002   81.6716   12.9594 C.ar    1  UNL1        0.0212
     20 C          62.6734   80.8433   11.9417 C.ar    1  UNL1       -0.0007
     21 C          62.9960   80.9928   10.4844 C.ar    1  UNL1       -0.0002
     22 C          64.0452   81.9705   10.0450 C.ar    1  UNL1       -0.0000
     23 C          64.7719   82.7988   11.0627 C.ar    1  UNL1       -0.0002
     24 C          64.4494   82.6493   12.5199 C.ar    1  UNL1       -0.0007
     25 C          65.7328   93.5803   12.8566 C.3     1  UNL1        0.2431
     26 C          66.7940   93.3102   13.8816 C.2     1  UNL1        0.3168
     27 N          68.0993   92.6128   13.6367 N.2     1  UNL1       -0.0631
     28 C          68.8484   92.5617   14.9353 C.3     1  UNL1        0.3130
     29 C          68.0061   93.2276   15.9828 C.3     1  UNL1        0.2575
     30 N          66.7365   93.6902   15.3316 N.pl3   1  UNL1       -0.2173
     31 H          65.9955   94.1606   15.7775 H       1  UNL1        0.2921
@<TRIPOS>BOND
     1    10    11    2
     2    11    12   ar
     3    12    13   ar
     4    13    17    1
     5    17    18    1
     6    18    19    1
     7    19    20   ar
     8    20    21   ar
     9    21    22   ar
    10    22    23   ar
    11    23    24   ar
    12    13    14   ar
    13    14    15   ar
    14    15    16   ar
    15    16     1    1
    16     1     2   ar
    17     2     3   ar
    18     3     4   ar
    19     4     5   ar
    20     5     6   ar
    21     6     7   ar
    22     7     8   ar
    23     8    25    1
    24    25    26    1
    25    26    27    2
    26    27    28    1
    27    28    29    1
    28    29    30    1
    29     5     9   ar
    30    16    11   ar
    31     9     1   ar
    32    24    19   ar
    33     8     4   ar
    34    30    26    1
    35    30    31    1
