@<TRIPOS>MOLECULE
*****
 33 38 0 0 0
SMALL
GASTEIGER

@<TRIPOS>ATOM
      1 O          59.1238   86.9898    7.6297 O.2     1  UNL1       -0.2698
      2 C          60.0144   88.1923    7.5254 C.2     1  UNL1        0.2495
      3 N          61.2682   88.2704    8.3449 N.am    1  UNL1       -0.2804
      4 H          61.8527   89.0596    8.2764 H       1  UNL1        0.1552
      5 C          61.6316   87.1459    9.2687 C.ar    1  UNL1        0.0505
      6 C          61.1612   87.1636   10.6930 C.ar    1  UNL1        0.0144
      7 C          61.5246   86.0392   11.6169 C.ar    1  UNL1       -0.0030
      8 C          62.3582   84.8969   11.1165 C.ar    1  UNL1       -0.0227
      9 C          62.8285   84.8792    9.6923 C.ar    1  UNL1       -0.0030
     10 C          62.4652   86.0037    8.7683 C.ar    1  UNL1        0.0144
     11 C          62.7215   83.7724   12.0404 C.3     1  UNL1        0.0189
     12 C          63.3900   84.0648   13.3510 C.3     1  UNL1        0.0040
     13 C          63.7532   82.9403   14.2749 C.3     1  UNL1        0.0003
     14 C          63.4481   81.5235   13.8881 C.3     1  UNL1        0.0000
     15 C          62.7796   81.2312   12.5775 C.3     1  UNL1        0.0003
     16 C          63.1330   84.4948   12.7578 C.3     1  UNL1        0.0000
     17 C          63.6951   85.4815   13.7378 C.3     1  UNL1        0.0003
     18 C          64.0584   84.3571   14.6616 C.3     1  UNL1        0.0000
     19 C          63.0267   85.1892   12.4272 C.3     1  UNL1        0.0040
     20 C          62.4164   82.3556   11.6537 C.3     1  UNL1        0.0040
     21 C          59.6510   89.3168    6.6015 C.ar    1  UNL1        0.0537
     22 C          58.2118   89.6918    6.4062 C.ar    1  UNL1        0.0042
     23 C          57.8485   90.8162    5.4823 C.ar    1  UNL1       -0.0028
     24 C          58.9243   91.5657    4.7537 C.ar    1  UNL1       -0.0061
     25 C          60.3635   91.1907    4.9490 C.ar    1  UNL1       -0.0028
     26 C          60.7268   90.0663    5.8728 C.ar    1  UNL1        0.0042
     27 C          58.5610   92.6902    3.8298 C.3     1  UNL1        0.0991
     28 N          59.4213   92.9896    2.6382 N.3     1  UNL1       -0.2690
     29 C          60.6275   93.8690    2.7859 C.3     1  UNL1        0.0724
     30 C          61.4879   94.1685    1.5942 C.3     1  UNL1        0.0174
     31 C          61.1421   93.5885    0.2548 C.3     1  UNL1        0.0029
     32 C          59.9360   92.7091    0.1070 C.3     1  UNL1        0.0174
     33 C          59.0756   92.4096    1.2987 C.3     1  UNL1        0.0724
@<TRIPOS>BOND
     1     1     2    2
     2     2     3   am
     3     3     5    1
     4     5     6   ar
     5     6     7   ar
     6     7     8   ar
     7     8    11    1
     8    11    12    1
     9    12    13    1
    10    13    14    1
    11    14    15    1
    12    15    16    1
    13    16    17    1
    14    17    18    1
    15    17    19    1
    16    15    20    1
    17     8     9   ar
    18     9    10   ar
    19     2    21    1
    20    21    22   ar
    21    22    23   ar
    22    23    24   ar
    23    24    27    1
    24    27    28    1
    25    28    29    1
    26    29    30    1
    27    30    31    1
    28    31    32    1
    29    32    33    1
    30    24    25   ar
    31    25    26   ar
    32    10     5   ar
    33    26    21   ar
    34    19    11    1
    35    33    28    1
    36    20    11    1
    37    18    13    1
    38     3     4    1
@<TRIPOS>MOLECULE
*****
 33 38 0 0 0
SMALL
GASTEIGER

@<TRIPOS>ATOM
      1 O          59.1538   87.1764    7.5572 O.2     1  UNL1       -0.2698
      2 C          59.9925   88.4182    7.4911 C.2     1  UNL1        0.2495
      3 N          61.1751   88.5739    8.4004 N.am    1  UNL1       -0.2804
      4 H          61.7256   89.3890    8.3570 H       1  UNL1        0.1552
      5 C          61.5191   87.4877    9.3760 C.ar    1  UNL1        0.0505
      6 C          62.3147   86.2987    8.9249 C.ar    1  UNL1        0.0144
      7 C          62.6586   85.2125    9.9004 C.ar    1  UNL1       -0.0030
      8 C          62.2071   85.3151   11.3271 C.ar    1  UNL1       -0.0227
      9 C          61.4116   86.5040   11.7783 C.ar    1  UNL1       -0.0030
     10 C          61.0675   87.5904   10.8027 C.ar    1  UNL1        0.0144
     11 C          62.5511   84.2288   12.3027 C.3     1  UNL1        0.0189
     12 C          63.3429   83.0378   11.8505 C.3     1  UNL1        0.0040
     13 C          63.6869   81.9516   12.8261 C.3     1  UNL1        0.0003
     14 C          63.2391   82.0564   14.2538 C.3     1  UNL1        0.0000
     15 C          62.4473   83.2474   14.7060 C.3     1  UNL1        0.0003
     16 C          63.0750   83.6812   11.5081 C.3     1  UNL1        0.0000
     17 C          63.7907   82.9330   10.4228 C.3     1  UNL1        0.0003
     18 C          64.1347   81.8468   11.3983 C.3     1  UNL1        0.0000
     19 C          62.9989   84.1241   10.8750 C.3     1  UNL1        0.0040
     20 C          62.1033   84.3336   13.7305 C.3     1  UNL1        0.0040
     21 C          59.6484   89.5045    6.5154 C.ar    1  UNL1        0.0537
     22 C          58.2162   89.8971    6.3044 C.ar    1  UNL1        0.0042
     23 C          57.8722   90.9833    5.3288 C.ar    1  UNL1       -0.0028
     24 C          58.9605   91.6769    4.5643 C.ar    1  UNL1       -0.0061
     25 C          60.3927   91.2843    4.7753 C.ar    1  UNL1       -0.0028
     26 C          60.7367   90.1981    5.7508 C.ar    1  UNL1        0.0042
     27 C          58.6165   92.7631    3.5886 C.3     1  UNL1        0.0991
     28 N          59.4915   93.0032    2.3942 N.3     1  UNL1       -0.2690
     29 C          60.8880   93.5186    2.5790 C.3     1  UNL1        0.0724
     30 C          61.7630   93.7587    1.3845 C.3     1  UNL1        0.0174
     31 C          61.2416   93.4833    0.0053 C.3     1  UNL1        0.0029
     32 C          59.8451   92.9679   -0.1795 C.3     1  UNL1        0.0174
     33 C          58.9700   92.7278    1.0149 C.3     1  UNL1        0.0724
@<TRIPOS>BOND
     1     1     2    2
     2     2     3   am
     3     3     5    1
     4     5     6   ar
     5     6     7   ar
     6     7     8   ar
     7     8    11    1
     8    11    12    1
     9    12    13    1
    10    13    14    1
    11    14    15    1
    12    15    16    1
    13    16    17    1
    14    17    18    1
    15    17    19    1
    16    15    20    1
    17     8     9   ar
    18     9    10   ar
    19     2    21    1
    20    21    22   ar
    21    22    23   ar
    22    23    24   ar
    23    24    27    1
    24    27    28    1
    25    28    29    1
    26    29    30    1
    27    30    31    1
    28    31    32    1
    29    32    33    1
    30    24    25   ar
    31    25    26   ar
    32    10     5   ar
    33    26    21   ar
    34    19    11    1
    35    33    28    1
    36    20    11    1
    37    18    13    1
    38     3     4    1
@<TRIPOS>MOLECULE
*****
 33 38 0 0 0
SMALL
GASTEIGER

@<TRIPOS>ATOM
      1 O          58.3943   90.1213    5.9642 O.2     1  UNL1       -0.2698
      2 C          59.8075   89.9021    6.4168 C.2     1  UNL1        0.2495
      3 N          60.9384   90.5763    5.6981 N.am    1  UNL1       -0.2804
      4 H          61.8659   90.4324    5.9952 H       1  UNL1        0.1552
      5 C          60.6560   91.4695    4.5266 C.ar    1  UNL1        0.0505
      6 C          61.7483   91.7954    3.5515 C.ar    1  UNL1        0.0144
      7 C          61.4660   92.6887    2.3800 C.ar    1  UNL1       -0.0030
      8 C          60.0914   93.2562    2.1837 C.ar    1  UNL1       -0.0227
      9 C          58.9992   92.9304    3.1588 C.ar    1  UNL1       -0.0030
     10 C          59.2815   92.0370    4.3303 C.ar    1  UNL1        0.0144
     11 C          59.8091   94.1495    1.0122 C.3     1  UNL1        0.0189
     12 C          59.5469   93.5538   -0.3392 C.3     1  UNL1        0.0040
     13 C          59.2646   94.4471   -1.5106 C.3     1  UNL1        0.0003
     14 C          59.2446   95.9361   -1.3306 C.3     1  UNL1        0.0000
     15 C          59.5068   96.5318    0.0208 C.3     1  UNL1        0.0003
     16 C          59.7068   93.2683    0.3650 C.3     1  UNL1        0.0000
     17 C          59.5670   92.0648   -0.5192 C.3     1  UNL1        0.0003
     18 C          59.2847   92.9581   -1.6906 C.3     1  UNL1        0.0000
     19 C          59.8292   92.6605    0.8322 C.3     1  UNL1        0.0040
     20 C          59.7891   95.6385    1.1922 C.3     1  UNL1        0.0040
     21 C          60.0898   89.0088    7.5883 C.ar    1  UNL1        0.0537
     22 C          59.6743   87.5680    7.5501 C.ar    1  UNL1        0.0042
     23 C          59.9566   86.6748    8.7216 C.ar    1  UNL1       -0.0028
     24 C          60.6544   87.2223    9.9312 C.ar    1  UNL1       -0.0061
     25 C          61.0700   88.6630    9.9694 C.ar    1  UNL1       -0.0028
     26 C          60.7877   89.5563    8.7980 C.ar    1  UNL1        0.0042
     27 C          60.9367   86.3289   11.1027 C.3     1  UNL1        0.0991
     28 N          62.0443   85.3202   11.0270 N.3     1  UNL1       -0.2690
     29 C          62.6452   84.9645    9.6995 C.3     1  UNL1        0.0724
     30 C          63.7528   83.9557    9.6238 C.3     1  UNL1        0.0174
     31 C          64.2595   83.3028   10.8755 C.3     1  UNL1        0.0029
     32 C          63.6585   83.6586   12.2030 C.3     1  UNL1        0.0174
     33 C          62.5510   84.6673   12.2788 C.3     1  UNL1        0.0724
@<TRIPOS>BOND
     1     1     2    2
     2     2     3   am
     3     3     5    1
     4     5     6   ar
     5     6     7   ar
     6     7     8   ar
     7     8    11    1
     8    11    12    1
     9    12    13    1
    10    13    14    1
    11    14    15    1
    12    15    16    1
    13    16    17    1
    14    17    18    1
    15    17    19    1
    16    15    20    1
    17     8     9   ar
    18     9    10   ar
    19     2    21    1
    20    21    22   ar
    21    22    23   ar
    22    23    24   ar
    23    24    27    1
    24    27    28    1
    25    28    29    1
    26    29    30    1
    27    30    31    1
    28    31    32    1
    29    32    33    1
    30    24    25   ar
    31    25    26   ar
    32    10     5   ar
    33    26    21   ar
    34    19    11    1
    35    33    28    1
    36    20    11    1
    37    18    13    1
    38     3     4    1
@<TRIPOS>MOLECULE
*****
 33 38 0 0 0
SMALL
GASTEIGER

@<TRIPOS>ATOM
      1 O          62.3577   88.4220   12.1630 O.2     1  UNL1       -0.2698
      2 C          63.6579   88.6815   12.8647 C.2     1  UNL1        0.2495
      3 N          64.3662   87.5627   13.5693 N.am    1  UNL1       -0.2804
      4 H          65.2195   87.7331   14.0299 H       1  UNL1        0.1552
      5 C          63.7744   86.1845   13.5724 C.ar    1  UNL1        0.0505
      6 C          63.8344   85.3452   14.8142 C.ar    1  UNL1        0.0144
      7 C          63.2426   83.9669   14.8172 C.ar    1  UNL1       -0.0030
      8 C          62.5907   83.4278   13.5785 C.ar    1  UNL1       -0.0227
      9 C          62.5307   84.2671   12.3367 C.ar    1  UNL1       -0.0030
     10 C          63.1225   85.6454   12.3336 C.ar    1  UNL1        0.0144
     11 C          61.9989   82.0495   13.5815 C.3     1  UNL1        0.0189
     12 C          62.5425   80.9978   12.6605 C.3     1  UNL1        0.0040
     13 C          61.9507   79.6195   12.6636 C.3     1  UNL1        0.0003
     14 C          60.8152   79.2929   13.5878 C.3     1  UNL1        0.0000
     15 C          60.2716   80.3446   14.5088 C.3     1  UNL1        0.0003
     16 C          62.7086   81.7430   12.8016 C.3     1  UNL1        0.0000
     17 C          63.6779   81.3244   11.7363 C.3     1  UNL1        0.0003
     18 C          63.0861   79.9461   11.7394 C.3     1  UNL1        0.0000
     19 C          63.1343   82.3761   12.6574 C.3     1  UNL1        0.0040
     20 C          60.8634   81.7229   14.5057 C.3     1  UNL1        0.0040
     21 C          64.2497   90.0599   12.8616 C.ar    1  UNL1        0.0537
     22 C          64.0081   90.9772   11.6997 C.ar    1  UNL1        0.0042
     23 C          64.5999   92.3555   11.6967 C.ar    1  UNL1       -0.0028
     24 C          65.4333   92.8164   12.8556 C.ar    1  UNL1       -0.0061
     25 C          65.6749   91.8991   14.0175 C.ar    1  UNL1       -0.0028
     26 C          65.0831   90.5208   14.0205 C.ar    1  UNL1        0.0042
     27 C          66.0251   94.1948   12.8525 C.3     1  UNL1        0.0991
     28 N          66.4971   94.8055   11.5664 N.3     1  UNL1       -0.2690
     29 C          67.2676   93.9774   10.5812 C.3     1  UNL1        0.0724
     30 C          67.7396   94.5882    9.2950 C.3     1  UNL1        0.0174
     31 C          67.4411   96.0270    8.9940 C.3     1  UNL1        0.0029
     32 C          66.6706   96.8551    9.9792 C.3     1  UNL1        0.0174
     33 C          66.1986   96.2444   11.2653 C.3     1  UNL1        0.0724
@<TRIPOS>BOND
     1     1     2    2
     2     2     3   am
     3     3     5    1
     4     5     6   ar
     5     6     7   ar
     6     7     8   ar
     7     8    11    1
     8    11    12    1
     9    12    13    1
    10    13    14    1
    11    14    15    1
    12    15    16    1
    13    16    17    1
    14    17    18    1
    15    17    19    1
    16    15    20    1
    17     8     9   ar
    18     9    10   ar
    19     2    21    1
    20    21    22   ar
    21    22    23   ar
    22    23    24   ar
    23    24    27    1
    24    27    28    1
    25    28    29    1
    26    29    30    1
    27    30    31    1
    28    31    32    1
    29    32    33    1
    30    24    25   ar
    31    25    26   ar
    32    10     5   ar
    33    26    21   ar
    34    19    11    1
    35    33    28    1
    36    20    11    1
    37    18    13    1
    38     3     4    1
@<TRIPOS>MOLECULE
*****
 33 38 0 0 0
SMALL
GASTEIGER

@<TRIPOS>ATOM
      1 O          71.6477   77.0253   14.1169 O.2     1  UNL1       -0.2698
      2 C          72.2489   76.8099   12.7596 C.2     1  UNL1        0.2495
      3 N          72.6289   75.4275   12.3184 N.am    1  UNL1       -0.2804
      4 H          73.0235   75.2861   11.4276 H       1  UNL1        0.1552
      5 C          72.4076   74.2606   13.2345 C.ar    1  UNL1        0.0505
      6 C          71.2471   73.3378   13.0069 C.ar    1  UNL1        0.0144
      7 C          71.0259   72.1709   13.9230 C.ar    1  UNL1       -0.0030
      8 C          71.9651   71.9266   15.0668 C.ar    1  UNL1       -0.0227
      9 C          73.1256   72.8493   15.2944 C.ar    1  UNL1       -0.0030
     10 C          73.3469   74.0163   14.3783 C.ar    1  UNL1        0.0144
     11 C          71.7438   70.7596   15.9829 C.3     1  UNL1        0.0189
     12 C          71.1013   70.9687   17.3221 C.3     1  UNL1        0.0040
     13 C          70.8801   69.8018   18.2381 C.3     1  UNL1        0.0003
     14 C          71.3013   68.4257   17.8150 C.3     1  UNL1        0.0000
     15 C          71.9438   68.2166   16.4758 C.3     1  UNL1        0.0003
     16 C          71.2942   71.4296   16.7277 C.3     1  UNL1        0.0000
     17 C          70.6801   72.3448   17.7452 C.3     1  UNL1        0.0003
     18 C          70.4588   71.1778   18.6612 C.3     1  UNL1        0.0000
     19 C          71.3226   72.1357   16.4060 C.3     1  UNL1        0.0040
     20 C          72.1651   69.3836   15.5598 C.3     1  UNL1        0.0040
     21 C          72.4702   77.9769   11.8435 C.ar    1  UNL1        0.0537
     22 C          71.8531   79.3068   12.1605 C.ar    1  UNL1        0.0042
     23 C          72.0744   80.4737   11.2444 C.ar    1  UNL1       -0.0028
     24 C          72.9126   80.3107   10.0113 C.ar    1  UNL1       -0.0061
     25 C          73.5297   78.9808    9.6942 C.ar    1  UNL1       -0.0028
     26 C          73.3084   77.8139   10.6103 C.ar    1  UNL1        0.0042
     27 C          73.1339   81.4777    9.0951 C.3     1  UNL1        0.0991
     28 N          72.7111   81.3940    7.6584 N.3     1  UNL1       -0.2690
     29 C          71.3676   80.8293    7.3036 C.3     1  UNL1        0.0724
     30 C          70.9449   80.7457    5.8668 C.3     1  UNL1        0.0174
     31 C          71.8657   81.2267    4.7848 C.3     1  UNL1        0.0029
     32 C          73.2093   81.7914    5.1397 C.3     1  UNL1        0.0174
     33 C          73.6320   81.8751    6.5764 C.3     1  UNL1        0.0724
@<TRIPOS>BOND
     1     1     2    2
     2     2     3   am
     3     3     5    1
     4     5     6   ar
     5     6     7   ar
     6     7     8   ar
     7     8    11    1
     8    11    12    1
     9    12    13    1
    10    13    14    1
    11    14    15    1
    12    15    16    1
    13    16    17    1
    14    17    18    1
    15    17    19    1
    16    15    20    1
    17     8     9   ar
    18     9    10   ar
    19     2    21    1
    20    21    22   ar
    21    22    23   ar
    22    23    24   ar
    23    24    27    1
    24    27    28    1
    25    28    29    1
    26    29    30    1
    27    30    31    1
    28    31    32    1
    29    32    33    1
    30    24    25   ar
    31    25    26   ar
    32    10     5   ar
    33    26    21   ar
    34    19    11    1
    35    33    28    1
    36    20    11    1
    37    18    13    1
    38     3     4    1
@<TRIPOS>MOLECULE
*****
 33 38 0 0 0
SMALL
GASTEIGER

@<TRIPOS>ATOM
      1 O          58.3644   89.7856    6.0871 O.2     1  UNL1       -0.2698
      2 C          59.7811   89.7133    6.5745 C.2     1  UNL1        0.2495
      3 N          60.8580   90.4806    5.8663 N.am    1  UNL1       -0.2804
      4 H          61.7878   90.4332    6.1861 H       1  UNL1        0.1552
      5 C          60.5180   91.3202    4.6707 C.ar    1  UNL1        0.0505
      6 C          61.5814   91.6678    3.6714 C.ar    1  UNL1        0.0144
      7 C          61.2414   92.5075    2.4759 C.ar    1  UNL1       -0.0030
      8 C          59.8381   92.9996    2.2796 C.ar    1  UNL1       -0.0227
      9 C          58.7748   92.6521    3.2788 C.ar    1  UNL1       -0.0030
     10 C          59.1147   91.8124    4.4744 C.ar    1  UNL1        0.0144
     11 C          59.4982   93.8393    1.0839 C.3     1  UNL1        0.0189
     12 C          59.9313   95.2742    1.0276 C.3     1  UNL1        0.0040
     13 C          59.5914   96.1139   -0.1680 C.3     1  UNL1        0.0003
     14 C          58.8183   95.5185   -1.3072 C.3     1  UNL1        0.0000
     15 C          58.3852   94.0835   -1.2509 C.3     1  UNL1        0.0003
     16 C          60.0080   94.6974    1.5417 C.3     1  UNL1        0.0000
     17 C          60.7043   95.8696    2.1669 C.3     1  UNL1        0.0003
     18 C          60.3644   96.7092    0.9713 C.3     1  UNL1        0.0000
     19 C          60.2712   94.4346    2.2232 C.3     1  UNL1        0.0040
     20 C          58.7252   93.2439   -0.0553 C.3     1  UNL1        0.0040
     21 C          60.1211   88.8735    7.7701 C.ar    1  UNL1        0.0537
     22 C          60.8053   89.4937    8.9521 C.ar    1  UNL1        0.0042
     23 C          61.1451   88.6540   10.1476 C.ar    1  UNL1       -0.0028
     24 C          60.8008   87.1941   10.1611 C.ar    1  UNL1       -0.0061
     25 C          60.1166   86.5740    8.9791 C.ar    1  UNL1       -0.0028
     26 C          59.7767   87.4137    7.7836 C.ar    1  UNL1        0.0042
     27 C          61.1408   86.3544   11.3568 C.3     1  UNL1        0.0991
     28 N          62.1903   85.2881   11.2504 N.3     1  UNL1       -0.2690
     29 C          62.6633   84.5758   12.4828 C.3     1  UNL1        0.0724
     30 C          63.7129   83.5094   12.3764 C.3     1  UNL1        0.0174
     31 C          64.2895   83.1555   11.0377 C.3     1  UNL1        0.0029
     32 C          63.8166   83.8679    9.8053 C.3     1  UNL1        0.0174
     33 C          62.7670   84.9342    9.9116 C.3     1  UNL1        0.0724
@<TRIPOS>BOND
     1     1     2    2
     2     2     3   am
     3     3     5    1
     4     5     6   ar
     5     6     7   ar
     6     7     8   ar
     7     8    11    1
     8    11    12    1
     9    12    13    1
    10    13    14    1
    11    14    15    1
    12    15    16    1
    13    16    17    1
    14    17    18    1
    15    17    19    1
    16    15    20    1
    17     8     9   ar
    18     9    10   ar
    19     2    21    1
    20    21    22   ar
    21    22    23   ar
    22    23    24   ar
    23    24    27    1
    24    27    28    1
    25    28    29    1
    26    29    30    1
    27    30    31    1
    28    31    32    1
    29    32    33    1
    30    24    25   ar
    31    25    26   ar
    32    10     5   ar
    33    26    21   ar
    34    19    11    1
    35    33    28    1
    36    20    11    1
    37    18    13    1
    38     3     4    1
@<TRIPOS>MOLECULE
*****
 33 38 0 0 0
SMALL
GASTEIGER

@<TRIPOS>ATOM
      1 O          70.3828   76.8930   12.8849 O.2     1  UNL1       -0.2698
      2 C          71.7561   76.6594   13.4414 C.2     1  UNL1        0.2495
      3 N          72.9280   77.4144   12.8878 N.am    1  UNL1       -0.2804
      4 H          73.8293   77.2611   13.2531 H       1  UNL1        0.1552
      5 C          72.7267   78.4030   11.7779 C.ar    1  UNL1        0.0505
      6 C          72.2365   79.7868   12.0857 C.ar    1  UNL1        0.0144
      7 C          72.0352   80.7754   10.9757 C.ar    1  UNL1       -0.0030
      8 C          72.3241   80.3803    9.5578 C.ar    1  UNL1       -0.0227
      9 C          72.8144   78.9965    9.2500 C.ar    1  UNL1       -0.0030
     10 C          73.0157   78.0078   10.3600 C.ar    1  UNL1        0.0144
     11 C          72.1228   81.3689    8.4478 C.3     1  UNL1        0.0189
     12 C          71.9451   80.8880    7.0382 C.3     1  UNL1        0.0040
     13 C          71.7438   81.8767    5.9283 C.3     1  UNL1        0.0003
     14 C          71.7202   83.3462    6.2280 C.3     1  UNL1        0.0000
     15 C          71.8980   83.8272    7.6376 C.3     1  UNL1        0.0003
     16 C          72.0577   80.5445    7.7254 C.3     1  UNL1        0.0000
     17 C          71.9686   79.4184    6.7385 C.3     1  UNL1        0.0003
     18 C          71.7673   80.4071    5.6286 C.3     1  UNL1        0.0000
     19 C          72.1464   79.8994    8.1481 C.3     1  UNL1        0.0040
     20 C          72.0993   82.8385    8.7475 C.3     1  UNL1        0.0040
     21 C          71.9573   75.6707   14.5514 C.ar    1  UNL1        0.0537
     22 C          73.3104   75.5131   15.1792 C.ar    1  UNL1        0.0042
     23 C          73.5116   74.5245   16.2892 C.ar    1  UNL1       -0.0028
     24 C          72.3597   73.6935   16.7714 C.ar    1  UNL1       -0.0061
     25 C          71.0066   73.8512   16.1436 C.ar    1  UNL1       -0.0028
     26 C          70.8054   74.8398   15.0336 C.ar    1  UNL1        0.0042
     27 C          72.5609   72.7049   17.8815 C.3     1  UNL1        0.0991
     28 N          72.2983   71.2472   17.6444 N.3     1  UNL1       -0.2690
     29 C          71.0310   70.6220   18.1474 C.3     1  UNL1        0.0724
     30 C          70.7684   69.1642   17.9103 C.3     1  UNL1        0.0174
     31 C          71.7730   68.3319   17.1701 C.3     1  UNL1        0.0029
     32 C          73.0403   68.9572   16.6671 C.3     1  UNL1        0.0174
     33 C          73.3029   70.4148   16.9042 C.3     1  UNL1        0.0724
@<TRIPOS>BOND
     1     1     2    2
     2     2     3   am
     3     3     5    1
     4     5     6   ar
     5     6     7   ar
     6     7     8   ar
     7     8    11    1
     8    11    12    1
     9    12    13    1
    10    13    14    1
    11    14    15    1
    12    15    16    1
    13    16    17    1
    14    17    18    1
    15    17    19    1
    16    15    20    1
    17     8     9   ar
    18     9    10   ar
    19     2    21    1
    20    21    22   ar
    21    22    23   ar
    22    23    24   ar
    23    24    27    1
    24    27    28    1
    25    28    29    1
    26    29    30    1
    27    30    31    1
    28    31    32    1
    29    32    33    1
    30    24    25   ar
    31    25    26   ar
    32    10     5   ar
    33    26    21   ar
    34    19    11    1
    35    33    28    1
    36    20    11    1
    37    18    13    1
    38     3     4    1
@<TRIPOS>MOLECULE
*****
 33 38 0 0 0
SMALL
GASTEIGER

@<TRIPOS>ATOM
      1 O          61.2054   92.7442    2.6861 O.2     1  UNL1       -0.2698
      2 C          59.7779   92.9315    2.2654 C.2     1  UNL1        0.2495
      3 N          58.6698   92.3500    3.0923 N.am    1  UNL1       -0.2804
      4 H          57.7329   92.4729    2.8162 H       1  UNL1        0.1552
      5 C          58.9892   91.5811    4.3400 C.ar    1  UNL1        0.0505
      6 C          60.4182   91.3514    4.7343 C.ar    1  UNL1        0.0144
      7 C          60.7376   90.5825    5.9820 C.ar    1  UNL1       -0.0030
      8 C          59.6281   90.0433    6.8354 C.ar    1  UNL1       -0.0227
      9 C          58.1993   90.2730    6.4412 C.ar    1  UNL1       -0.0030
     10 C          57.8798   91.0419    5.1934 C.ar    1  UNL1        0.0144
     11 C          59.9476   89.2744    8.0831 C.3     1  UNL1        0.0189
     12 C          59.7505   87.7879    8.1192 C.3     1  UNL1        0.0040
     13 C          60.0700   87.0190    9.3669 C.3     1  UNL1        0.0003
     14 C          60.5866   87.7367   10.5785 C.3     1  UNL1        0.0000
     15 C          60.7837   89.2233   10.5425 C.3     1  UNL1        0.0003
     16 C          59.6460   88.3428    7.5863 C.3     1  UNL1        0.0000
     17 C          59.2340   87.0702    6.9076 C.3     1  UNL1        0.0003
     18 C          59.5534   86.3014    8.1553 C.3     1  UNL1        0.0000
     19 C          59.4311   88.5567    6.8715 C.3     1  UNL1        0.0040
     20 C          60.4642   89.9921    9.2948 C.3     1  UNL1        0.0040
     21 C          59.4585   93.7004    1.0176 C.ar    1  UNL1        0.0537
     22 C          59.8482   95.1446    0.9062 C.ar    1  UNL1        0.0042
     23 C          59.5288   95.9135   -0.3415 C.ar    1  UNL1       -0.0028
     24 C          58.8197   95.2381   -1.4778 C.ar    1  UNL1       -0.0061
     25 C          58.4301   93.7939   -1.3664 C.ar    1  UNL1       -0.0028
     26 C          58.7495   93.0251   -0.1187 C.ar    1  UNL1        0.0042
     27 C          58.5003   96.0070   -2.7255 C.3     1  UNL1        0.0991
     28 N          57.1274   95.9280   -3.3245 N.3     1  UNL1       -0.2690
     29 C          56.8946   95.1121   -4.5614 C.3     1  UNL1        0.0724
     30 C          55.5215   95.0330   -5.1603 C.3     1  UNL1        0.0174
     31 C          54.3814   95.7699   -4.5223 C.3     1  UNL1        0.0029
     32 C          54.6143   96.5858   -3.2853 C.3     1  UNL1        0.0174
     33 C          55.9872   96.6649   -2.6864 C.3     1  UNL1        0.0724
@<TRIPOS>BOND
     1     1     2    2
     2     2     3   am
     3     3     5    1
     4     5     6   ar
     5     6     7   ar
     6     7     8   ar
     7     8    11    1
     8    11    12    1
     9    12    13    1
    10    13    14    1
    11    14    15    1
    12    15    16    1
    13    16    17    1
    14    17    18    1
    15    17    19    1
    16    15    20    1
    17     8     9   ar
    18     9    10   ar
    19     2    21    1
    20    21    22   ar
    21    22    23   ar
    22    23    24   ar
    23    24    27    1
    24    27    28    1
    25    28    29    1
    26    29    30    1
    27    30    31    1
    28    31    32    1
    29    32    33    1
    30    24    25   ar
    31    25    26   ar
    32    10     5   ar
    33    26    21   ar
    34    19    11    1
    35    33    28    1
    36    20    11    1
    37    18    13    1
    38     3     4    1
@<TRIPOS>MOLECULE
*****
 33 38 0 0 0
SMALL
GASTEIGER

@<TRIPOS>ATOM
      1 O          61.3283   92.2609    2.2975 O.2     1  UNL1       -0.2698
      2 C          59.9507   92.7826    2.0146 C.2     1  UNL1        0.2495
      3 N          58.8343   92.5146    2.9799 N.am    1  UNL1       -0.2804
      4 H          57.9302   92.8570    2.7943 H       1  UNL1        0.1552
      5 C          59.0956   91.7248    4.2281 C.ar    1  UNL1        0.0505
      6 C          57.9471   91.2234    5.0526 C.ar    1  UNL1        0.0144
      7 C          58.2083   90.4336    6.3007 C.ar    1  UNL1       -0.0030
      8 C          59.6180   90.1451    6.7245 C.ar    1  UNL1       -0.0227
      9 C          60.7665   90.6464    5.9000 C.ar    1  UNL1       -0.0030
     10 C          60.5053   91.4363    4.6518 C.ar    1  UNL1        0.0144
     11 C          59.8792   89.3553    7.9727 C.3     1  UNL1        0.0189
     12 C          59.6805   87.8686    7.9748 C.3     1  UNL1        0.0040
     13 C          59.9417   87.0788    9.2230 C.3     1  UNL1        0.0003
     14 C          60.4016   87.7758   10.4691 C.3     1  UNL1        0.0000
     15 C          60.6003   89.2625   10.4669 C.3     1  UNL1        0.0003
     16 C          59.6008   88.4323    7.4469 C.3     1  UNL1        0.0000
     17 C          59.2206   87.1716    6.7287 C.3     1  UNL1        0.0003
     18 C          59.4818   86.3818    7.9769 C.3     1  UNL1        0.0000
     19 C          59.4193   88.6583    6.7266 C.3     1  UNL1        0.0040
     20 C          60.3391   90.0523    9.2188 C.3     1  UNL1        0.0040
     21 C          59.6895   93.5724    0.7664 C.ar    1  UNL1        0.0537
     22 C          59.7807   95.0694    0.7932 C.ar    1  UNL1        0.0042
     23 C          59.5195   95.8591   -0.4550 C.ar    1  UNL1       -0.0028
     24 C          59.1671   95.1519   -1.7300 C.ar    1  UNL1       -0.0061
     25 C          59.0759   93.6550   -1.7568 C.ar    1  UNL1       -0.0028
     26 C          59.3371   92.8652   -0.5086 C.ar    1  UNL1        0.0042
     27 C          58.9059   95.9418   -2.9782 C.3     1  UNL1        0.0991
     28 N          59.3835   95.4285   -4.3043 N.3     1  UNL1       -0.2690
     29 C          58.4124   94.8003   -5.2593 C.3     1  UNL1        0.0724
     30 C          58.8901   94.2870   -6.5854 C.3     1  UNL1        0.0174
     31 C          60.3389   94.4020   -6.9564 C.3     1  UNL1        0.0029
     32 C          61.3101   95.0302   -6.0013 C.3     1  UNL1        0.0174
     33 C          60.8324   95.5434   -4.6753 C.3     1  UNL1        0.0724
@<TRIPOS>BOND
     1     1     2    2
     2     2     3   am
     3     3     5    1
     4     5     6   ar
     5     6     7   ar
     6     7     8   ar
     7     8    11    1
     8    11    12    1
     9    12    13    1
    10    13    14    1
    11    14    15    1
    12    15    16    1
    13    16    17    1
    14    17    18    1
    15    17    19    1
    16    15    20    1
    17     8     9   ar
    18     9    10   ar
    19     2    21    1
    20    21    22   ar
    21    22    23   ar
    22    23    24   ar
    23    24    27    1
    24    27    28    1
    25    28    29    1
    26    29    30    1
    27    30    31    1
    28    31    32    1
    29    32    33    1
    30    24    25   ar
    31    25    26   ar
    32    10     5   ar
    33    26    21   ar
    34    19    11    1
    35    33    28    1
    36    20    11    1
    37    18    13    1
    38     3     4    1
