@<TRIPOS>MOLECULE
*****
 44 48 0 0 0
SMALL
GASTEIGER

@<TRIPOS>ATOM
      1 C          62.2482   89.8232   11.8641 C.3     1  UNL1        0.1329
      2 C          60.9961   90.0205   12.6661 C.3     1  UNL1        0.0297
      3 N          64.2202   90.8395   13.2163 N.ar    1  UNL1       -0.2612
      4 C          63.3746   90.8073   11.9778 C.ar    1  UNL1        0.1462
      5 N          63.6553   91.7591   10.8530 N.ar    1  UNL1       -0.2114
      6 C          64.7817   92.7432   10.9667 C.ar    1  UNL1        0.1682
      7 N          65.0624   93.6950    9.8419 N.ar    1  UNL1       -0.2249
      8 C          66.1888   94.6791    9.9556 C.ar    1  UNL1        0.1006
      9 C          67.0344   94.7113   11.1941 C.ar    1  UNL1        0.0209
     10 C          66.7537   93.7595   12.3189 C.ar    1  UNL1        0.0094
     11 C          65.6273   92.7754   12.2051 C.ar    1  UNL1        0.0923
     12 C          65.3466   91.8235   13.3300 C.ar    1  UNL1        0.2685
     13 O          66.1922   91.8558   14.5685 O.2     1  UNL1       -0.2665
     14 C          63.3780   87.9839   16.5906 C.ar    1  UNL1        0.1386
     15 C          64.2411   87.5536   15.4417 C.ar    1  UNL1        0.0384
     16 C          64.5218   88.5055   14.3170 C.ar    1  UNL1        0.0208
     17 C          63.9395   89.8876   14.3411 C.ar    1  UNL1        0.0682
     18 C          63.0764   90.3179   15.4899 C.ar    1  UNL1        0.0208
     19 C          62.7957   89.3660   16.6147 C.ar    1  UNL1        0.0384
     20 O          63.0973   87.0320   17.7154 O.3     1  UNL1       -0.4755
     21 C          62.4585   84.9342   16.3222 C.3     1  UNL1        0.0512
     22 C          62.2102   85.8438   17.4887 C.3     1  UNL1        0.2055
     23 N          62.3740   88.6418   10.9484 N.am    1  UNL1       -0.2699
     24 C          62.6928   87.2880   11.5102 C.2     1  UNL1        0.2306
     25 O          62.8859   87.1156   12.9877 O.2     1  UNL1       -0.2745
     26 C          62.1809   88.8142    9.4709 C.3     1  UNL1        0.1220
     27 C          61.0351   88.1361    8.7801 C.ar    1  UNL1        0.0169
     28 C          61.1205   86.6771    8.4422 C.ar    1  UNL1        0.0005
     29 C          59.9747   85.9990    7.7514 C.ar    1  UNL1        0.0204
     30 C          58.7436   86.7798    7.3983 C.ar    1  UNL1        0.0989
     31 N          58.6582   88.2387    7.7362 N.ar    1  UNL1       -0.2426
     32 C          59.8040   88.9168    8.4270 C.ar    1  UNL1        0.0962
     33 C          62.8186   86.1066   10.5945 C.3     1  UNL1        0.1116
     34 C          62.9927   84.7305   11.1653 C.ar    1  UNL1       -0.0129
     35 C          62.5353   84.4348   12.5629 C.ar    1  UNL1       -0.0007
     36 C          62.7094   83.0585   13.1337 C.ar    1  UNL1        0.0369
     37 C          63.3409   81.9780   12.3068 C.ar    1  UNL1        0.1468
     38 C          63.7982   82.2737   10.9091 C.ar    1  UNL1        0.0369
     39 C          63.6241   83.6499   10.3384 C.ar    1  UNL1       -0.0007
     40 O          63.5150   80.6019   12.8776 O.3     1  UNL1       -0.4045
     41 C          62.3139   79.8036   13.2903 C.3     1  UNL1        0.5753
     42 F          61.1129   79.0054   13.7030 F       1  UNL1       -0.1328
     43 F          62.4006   79.0151   12.0172 F       1  UNL1       -0.1328
     44 F          62.2273   80.5922   14.5633 F       1  UNL1       -0.1328
@<TRIPOS>BOND
     1    21    22    1
     2    22    20    1
     3    20    14    1
     4    14    15   ar
     5    15    16   ar
     6    16    17   ar
     7    17     3    1
     8     3     4   ar
     9     4     1    1
    10     1     2    1
    11     1    23    1
    12    23    26    1
    13    26    27    1
    14    27    28   ar
    15    28    29   ar
    16    29    30   ar
    17    30    31   ar
    18    31    32   ar
    19    23    24   am
    20    24    25    2
    21    24    33    1
    22    33    34    1
    23    34    35   ar
    24    35    36   ar
    25    36    37   ar
    26    37    40    1
    27    40    41    1
    28    41    42    1
    29    41    43    1
    30    41    44    1
    31    37    38   ar
    32    38    39   ar
    33     4     5   ar
    34     5     6   ar
    35     6     7   ar
    36     7     8   ar
    37     8     9   ar
    38     9    10   ar
    39    10    11   ar
    40    11    12   ar
    41    12    13    2
    42    17    18   ar
    43    18    19   ar
    44    19    14   ar
    45    12     3   ar
    46    32    27   ar
    47    39    34   ar
    48    11     6   ar
@<TRIPOS>MOLECULE
*****
 44 48 0 0 0
SMALL
GASTEIGER

@<TRIPOS>ATOM
      1 C          61.7701   87.9704   12.0881 C.3     1  UNL1        0.1329
      2 C          60.3240   88.3528   11.9764 C.3     1  UNL1        0.0297
      3 N          61.9312   86.2692   10.1311 N.ar    1  UNL1       -0.2612
      4 C          62.2414   86.6529   11.5476 C.ar    1  UNL1        0.1462
      5 N          63.0230   85.7192   12.4235 N.ar    1  UNL1       -0.2114
      6 C          63.4944   84.4017   11.8830 C.ar    1  UNL1        0.1682
      7 N          64.2759   83.4681   12.7590 N.ar    1  UNL1       -0.2249
      8 C          64.7472   82.1506   12.2184 C.ar    1  UNL1        0.1006
      9 C          64.4370   81.7669   10.8019 C.ar    1  UNL1        0.0209
     10 C          63.6554   82.7006    9.9260 C.ar    1  UNL1        0.0094
     11 C          63.1841   84.0180   10.4665 C.ar    1  UNL1        0.0923
     12 C          62.4025   84.9517    9.5905 C.ar    1  UNL1        0.2685
     13 O          62.0922   84.5680    8.1740 O.2     1  UNL1       -0.2665
     14 C          59.5863   89.0702    7.5032 C.ar    1  UNL1        0.1386
     15 C          59.2129   87.6192    7.5741 C.ar    1  UNL1        0.0384
     16 C          59.9945   86.6856    8.4500 C.ar    1  UNL1        0.0208
     17 C          61.1495   87.2029    9.2551 C.ar    1  UNL1        0.0682
     18 C          61.5230   88.6539    9.1842 C.ar    1  UNL1        0.0208
     19 C          60.7414   89.5876    8.3083 C.ar    1  UNL1        0.0384
     20 O          58.8047   90.0040    6.6272 O.3     1  UNL1       -0.4755
     21 C          58.7908   91.8250    4.7742 C.3     1  UNL1        0.0512
     22 C          59.4762   90.6890    5.4740 C.3     1  UNL1        0.2055
     23 N          62.7449   88.9055   12.7403 N.am    1  UNL1       -0.2699
     24 C          62.5878   90.3880   12.5745 C.2     1  UNL1        0.2306
     25 O          61.4559   90.9355   11.7565 O.2     1  UNL1       -0.2745
     26 C          63.8768   88.3580   13.5583 C.3     1  UNL1        0.1220
     27 C          63.6243   87.8623   14.9513 C.ar    1  UNL1        0.0169
     28 C          63.1925   88.8204   16.0216 C.ar    1  UNL1        0.0005
     29 C          62.9400   88.3247   17.4146 C.ar    1  UNL1        0.0204
     30 C          63.1192   86.8709   17.7373 C.ar    1  UNL1        0.0989
     31 N          63.5509   85.9128   16.6670 N.ar    1  UNL1       -0.2426
     32 C          63.8035   86.4085   15.2740 C.ar    1  UNL1        0.0962
     33 C          63.5626   91.3231   13.2267 C.3     1  UNL1        0.1116
     34 C          64.7259   91.8584   12.4456 C.ar    1  UNL1       -0.0129
     35 C          66.0547   92.0489   13.1148 C.ar    1  UNL1       -0.0007
     36 C          67.2180   92.5842   12.3335 C.ar    1  UNL1        0.0369
     37 C          67.0524   92.9290   10.8832 C.ar    1  UNL1        0.1468
     38 C          65.7235   92.7386   10.2140 C.ar    1  UNL1        0.0369
     39 C          64.5603   92.2033   10.9951 C.ar    1  UNL1       -0.0007
     40 O          68.2156   93.4643   10.1020 O.3     1  UNL1       -0.4045
     41 C          67.9883   94.4697    9.0123 C.3     1  UNL1        0.5753
     42 F          67.7610   95.4751    7.9225 F       1  UNL1       -0.1328
     43 F          67.7067   95.5228   10.0426 F       1  UNL1       -0.1328
     44 F          68.2699   93.4166    7.9819 F       1  UNL1       -0.1328
@<TRIPOS>BOND
     1    21    22    1
     2    22    20    1
     3    20    14    1
     4    14    15   ar
     5    15    16   ar
     6    16    17   ar
     7    17     3    1
     8     3     4   ar
     9     4     1    1
    10     1     2    1
    11     1    23    1
    12    23    26    1
    13    26    27    1
    14    27    28   ar
    15    28    29   ar
    16    29    30   ar
    17    30    31   ar
    18    31    32   ar
    19    23    24   am
    20    24    25    2
    21    24    33    1
    22    33    34    1
    23    34    35   ar
    24    35    36   ar
    25    36    37   ar
    26    37    40    1
    27    40    41    1
    28    41    42    1
    29    41    43    1
    30    41    44    1
    31    37    38   ar
    32    38    39   ar
    33     4     5   ar
    34     5     6   ar
    35     6     7   ar
    36     7     8   ar
    37     8     9   ar
    38     9    10   ar
    39    10    11   ar
    40    11    12   ar
    41    12    13    2
    42    17    18   ar
    43    18    19   ar
    44    19    14   ar
    45    12     3   ar
    46    32    27   ar
    47    39    34   ar
    48    11     6   ar
@<TRIPOS>MOLECULE
*****
 44 48 0 0 0
SMALL
GASTEIGER

@<TRIPOS>ATOM
      1 C          62.0701   88.9462   11.7764 C.3     1  UNL1        0.1329
      2 C          60.6621   89.4559   11.8641 C.3     1  UNL1        0.0297
      3 N          61.7774   86.7764   10.3777 N.ar    1  UNL1       -0.2612
      4 C          62.3268   87.4811   11.5826 C.ar    1  UNL1        0.1462
      5 N          63.1327   86.7206   12.5935 N.ar    1  UNL1       -0.2114
      6 C          63.3894   85.2555   12.3997 C.ar    1  UNL1        0.1682
      7 N          64.1953   84.4951   13.4107 N.ar    1  UNL1       -0.2249
      8 C          64.4519   83.0300   13.2168 C.ar    1  UNL1        0.1006
      9 C          63.9026   82.3253   12.0120 C.ar    1  UNL1        0.0209
     10 C          63.0966   83.0857   11.0010 C.ar    1  UNL1        0.0094
     11 C          62.8400   84.5508   11.1949 C.ar    1  UNL1        0.0923
     12 C          62.0340   85.3113   10.1839 C.ar    1  UNL1        0.2685
     13 O          61.4846   84.6067    8.9790 O.2     1  UNL1       -0.2665
     14 C          59.3595   89.0579    7.3448 C.ar    1  UNL1        0.1386
     15 C          60.5818   89.6806    7.9516 C.ar    1  UNL1        0.0384
     16 C          61.3877   88.9201    8.9625 C.ar    1  UNL1        0.0208
     17 C          60.9714   87.5369    9.3667 C.ar    1  UNL1        0.0682
     18 C          59.7491   86.9142    8.7600 C.ar    1  UNL1        0.0208
     19 C          58.9431   87.6747    7.7490 C.ar    1  UNL1        0.0384
     20 O          58.5535   89.8184    6.3338 O.3     1  UNL1       -0.4755
     21 C          58.4147   91.8531    4.7243 C.3     1  UNL1        0.0512
     22 C          59.2266   90.8060    5.4274 C.3     1  UNL1        0.2055
     23 N          63.2215   89.9017   11.8825 N.am    1  UNL1       -0.2699
     24 C          63.3527   91.0299   10.9026 C.2     1  UNL1        0.2306
     25 O          62.3325   91.2025    9.8167 O.2     1  UNL1       -0.2745
     26 C          64.2417   89.7291   12.9685 C.3     1  UNL1        0.1220
     27 C          63.8329   89.1728   14.3001 C.ar    1  UNL1        0.0169
     28 C          64.3732   87.8508   14.7586 C.ar    1  UNL1        0.0005
     29 C          63.9643   87.2945   16.0903 C.ar    1  UNL1        0.0204
     30 C          63.0151   88.0602   16.9635 C.ar    1  UNL1        0.0989
     31 N          62.4747   89.3822   16.5050 N.ar    1  UNL1       -0.2426
     32 C          62.8836   89.9385   15.1734 C.ar    1  UNL1        0.0962
     33 C          64.5042   91.9853   11.0087 C.3     1  UNL1        0.1116
     34 C          65.3259   92.0332   12.2627 C.ar    1  UNL1       -0.0129
     35 C          66.8014   91.7700   12.2029 C.ar    1  UNL1       -0.0007
     36 C          67.6232   91.8179   13.4570 C.ar    1  UNL1        0.0369
     37 C          66.9694   92.1290   14.7706 C.ar    1  UNL1        0.1468
     38 C          65.4939   92.3923   14.8303 C.ar    1  UNL1        0.0369
     39 C          64.6721   92.3444   13.5764 C.ar    1  UNL1       -0.0007
     40 O          67.7911   92.1769   16.0246 O.3     1  UNL1       -0.4045
     41 C          68.8292   93.2453   16.2006 C.3     1  UNL1        0.5753
     42 F          69.8673   94.3136   16.3767 F       1  UNL1       -0.1328
     43 F          69.7670   92.2362   16.7943 F       1  UNL1       -0.1328
     44 F          67.8914   94.2543   15.6070 F       1  UNL1       -0.1328
@<TRIPOS>BOND
     1    21    22    1
     2    22    20    1
     3    20    14    1
     4    14    15   ar
     5    15    16   ar
     6    16    17   ar
     7    17     3    1
     8     3     4   ar
     9     4     1    1
    10     1     2    1
    11     1    23    1
    12    23    26    1
    13    26    27    1
    14    27    28   ar
    15    28    29   ar
    16    29    30   ar
    17    30    31   ar
    18    31    32   ar
    19    23    24   am
    20    24    25    2
    21    24    33    1
    22    33    34    1
    23    34    35   ar
    24    35    36   ar
    25    36    37   ar
    26    37    40    1
    27    40    41    1
    28    41    42    1
    29    41    43    1
    30    41    44    1
    31    37    38   ar
    32    38    39   ar
    33     4     5   ar
    34     5     6   ar
    35     6     7   ar
    36     7     8   ar
    37     8     9   ar
    38     9    10   ar
    39    10    11   ar
    40    11    12   ar
    41    12    13    2
    42    17    18   ar
    43    18    19   ar
    44    19    14   ar
    45    12     3   ar
    46    32    27   ar
    47    39    34   ar
    48    11     6   ar
@<TRIPOS>MOLECULE
*****
 44 48 0 0 0
SMALL
GASTEIGER

@<TRIPOS>ATOM
      1 C          61.1202   88.1347   11.0356 C.3     1  UNL1        0.1329
      2 C          60.9757   89.4798   11.6835 C.3     1  UNL1        0.0297
      3 N          63.1055   87.3898   12.5369 N.ar    1  UNL1       -0.2612
      4 C          61.8905   87.0484   11.7261 C.ar    1  UNL1        0.1462
      5 N          61.4458   85.6210   11.6059 N.ar    1  UNL1       -0.2114
      6 C          62.2161   84.5347   12.2965 C.ar    1  UNL1        0.1682
      7 N          61.7714   83.1072   12.1763 N.ar    1  UNL1       -0.2249
      8 C          62.5417   82.0211   12.8668 C.ar    1  UNL1        0.1006
      9 C          63.7567   82.3624   13.6775 C.ar    1  UNL1        0.0209
     10 C          64.2014   83.7899   13.7977 C.ar    1  UNL1        0.0094
     11 C          63.4311   84.8760   13.1072 C.ar    1  UNL1        0.0923
     12 C          63.8758   86.3036   13.2274 C.ar    1  UNL1        0.2685
     13 O          65.0908   86.6449   14.0381 O.2     1  UNL1       -0.2665
     14 C          64.4395   91.6723   12.8973 C.ar    1  UNL1        0.1386
     15 C          64.0115   91.1297   11.5661 C.ar    1  UNL1        0.0384
     16 C          63.5668   89.7022   11.4459 C.ar    1  UNL1        0.0208
     17 C          63.5502   88.8173   12.6570 C.ar    1  UNL1        0.0682
     18 C          63.9782   89.3600   13.9883 C.ar    1  UNL1        0.0208
     19 C          64.4229   90.7875   14.1084 C.ar    1  UNL1        0.0384
     20 O          64.8842   93.0999   13.0175 O.3     1  UNL1       -0.4755
     21 C          66.9933   93.4793   14.4863 C.3     1  UNL1        0.0512
     22 C          66.3442   93.4233   13.1353 C.3     1  UNL1        0.2055
     23 N          60.4945   87.8757    9.6971 N.am    1  UNL1       -0.2699
     24 C          60.2176   89.0180    8.7651 C.2     1  UNL1        0.2306
     25 O          60.5664   90.4191    9.1715 O.2     1  UNL1       -0.2745
     26 C          60.1458   86.4747    9.2907 C.3     1  UNL1        0.1220
     27 C          60.9406   85.7837    8.2226 C.ar    1  UNL1        0.0169
     28 C          62.4265   85.6398    8.3682 C.ar    1  UNL1        0.0005
     29 C          63.2214   84.9489    7.3001 C.ar    1  UNL1        0.0204
     30 C          62.5303   84.4017    6.0865 C.ar    1  UNL1        0.0989
     31 N          61.0444   84.5455    5.9409 N.ar    1  UNL1       -0.2426
     32 C          60.2495   85.2365    7.0090 C.ar    1  UNL1        0.0962
     33 C          59.5919   88.7591    7.4266 C.3     1  UNL1        0.1116
     34 C          59.5358   89.8521    6.4009 C.ar    1  UNL1       -0.0129
     35 C          60.7938   90.3130    5.7264 C.ar    1  UNL1       -0.0007
     36 C          60.7376   91.4061    4.7006 C.ar    1  UNL1        0.0369
     37 C          59.4235   92.0381    4.3494 C.ar    1  UNL1        0.1468
     38 C          58.1654   91.5772    5.0239 C.ar    1  UNL1        0.0369
     39 C          58.2216   90.4842    6.0496 C.ar    1  UNL1       -0.0007
     40 O          59.3673   93.1311    3.3236 O.3     1  UNL1       -0.4045
     41 C          60.1306   92.9945    2.0396 C.3     1  UNL1        0.5753
     42 F          60.8938   92.8580    0.7555 F       1  UNL1       -0.1328
     43 F          58.8994   92.4676    1.3639 F       1  UNL1       -0.1328
     44 F          61.3617   93.5215    2.7153 F       1  UNL1       -0.1328
@<TRIPOS>BOND
     1    21    22    1
     2    22    20    1
     3    20    14    1
     4    14    15   ar
     5    15    16   ar
     6    16    17   ar
     7    17     3    1
     8     3     4   ar
     9     4     1    1
    10     1     2    1
    11     1    23    1
    12    23    26    1
    13    26    27    1
    14    27    28   ar
    15    28    29   ar
    16    29    30   ar
    17    30    31   ar
    18    31    32   ar
    19    23    24   am
    20    24    25    2
    21    24    33    1
    22    33    34    1
    23    34    35   ar
    24    35    36   ar
    25    36    37   ar
    26    37    40    1
    27    40    41    1
    28    41    42    1
    29    41    43    1
    30    41    44    1
    31    37    38   ar
    32    38    39   ar
    33     4     5   ar
    34     5     6   ar
    35     6     7   ar
    36     7     8   ar
    37     8     9   ar
    38     9    10   ar
    39    10    11   ar
    40    11    12   ar
    41    12    13    2
    42    17    18   ar
    43    18    19   ar
    44    19    14   ar
    45    12     3   ar
    46    32    27   ar
    47    39    34   ar
    48    11     6   ar
