@<TRIPOS>MOLECULE
*****
 55 63 0 0 0
SMALL
GASTEIGER

@<TRIPOS>ATOM
      1 C          61.2534   88.5598    9.2495 C.2     1  UNL1        0.1542
      2 N          60.4852   89.6268    8.5274 N.2     1  UNL1       -0.0655
      3 C          59.6035   89.2630    7.3697 C.cat   1  UNL1        0.4642
      4 N          59.4901   87.8322    6.9341 N.2     1  UNL1        0.0296
      5 C          60.2582   86.7652    7.6562 C.2     1  UNL1        0.3685
      6 N          60.3453   85.2811    7.4558 N.2     1  UNL1       -0.0340
      7 C          61.2807   84.7278    8.4896 C.2     1  UNL1        0.2321
      8 C          61.7718   85.8699    9.3290 C.2     1  UNL1        0.0439
      9 C          61.1399   87.1290    8.8139 C.3     1  UNL1        0.1946
     10 N          65.1896   90.7634   13.8598 N.am    1  UNL1       -0.2526
     11 C          64.8481   89.4647   14.5280 C.3     1  UNL1        0.1229
     12 C          63.9138   88.5001   13.8596 C.3     1  UNL1        0.1280
     13 N          63.3210   88.8344   12.5229 N.ar    1  UNL1       -0.3206
     14 C          62.3770   88.0869   11.6284 C.ar    1  UNL1        0.0787
     15 C          62.1350   88.9237   10.4072 C.ar    1  UNL1        0.0498
     16 C          62.9295   90.1884   10.5470 C.ar    1  UNL1        0.0259
     17 C          63.6625   90.1331   11.8546 C.ar    1  UNL1        0.1147
     18 C          64.5968   91.0976   12.5230 C.2     1  UNL1        0.2687
     19 O          64.9383   92.3964   11.8547 O.2     1  UNL1       -0.2680
     20 C          67.4924   91.9621   13.9606 C.ar    1  UNL1       -0.0088
     21 C          68.4267   92.9267   14.6290 C.ar    1  UNL1       -0.0031
     22 C          67.9923   93.6571   15.8651 C.ar    1  UNL1       -0.0006
     23 C          66.6237   93.4230   16.4326 C.ar    1  UNL1       -0.0031
     24 C          65.6895   92.4584   15.7642 C.ar    1  UNL1       -0.0088
     25 C          66.1239   91.7280   14.5282 C.ar    1  UNL1        0.0462
     26 C          68.1599   91.9870   11.4498 C.3     1  UNL1        0.0051
     27 C          67.9267   91.2316   12.7246 C.3     1  UNL1        0.0276
     28 C          64.3209   92.2244   16.3319 C.3     1  UNL1        0.0276
     29 C          63.9367   90.8610   16.8256 C.3     1  UNL1        0.0051
     30 N          58.8354   90.3300    6.6476 N.pl3   1  UNL1       -0.1896
     31 H          57.9216   90.5581    6.9342 H       1  UNL1        0.2524
     32 C          59.4597   91.0496    5.4889 C.ar    1  UNL1        0.1435
     33 C          60.9020   90.8157    5.1498 C.ar    1  UNL1        0.0356
     34 C          61.5263   91.5352    3.9912 C.ar    1  UNL1        0.0174
     35 C          60.7082   92.4887    3.1715 C.ar    1  UNL1        0.0511
     36 C          59.2659   92.7226    3.5106 C.ar    1  UNL1        0.0541
     37 C          58.6417   92.0030    4.6693 C.ar    1  UNL1        0.1684
     38 N          61.3325   93.2082    2.0128 N.pl3   1  UNL1       -0.3074
     39 C          60.5723   94.2897    1.3039 C.3     1  UNL1        0.0913
     40 C          61.1966   95.0092    0.1452 C.3     1  UNL1        0.0305
     41 C          62.5811   94.6472   -0.3045 C.3     1  UNL1        0.0801
     42 C          63.3412   93.5658    0.4045 C.3     1  UNL1        0.0305
     43 C          62.7169   92.8462    1.5631 C.3     1  UNL1        0.0913
     44 C          63.2054   95.3667   -1.4632 C.2     1  UNL1        0.2253
     45 O          63.3787   96.8560   -1.4161 O.2     1  UNL1       -0.2749
     46 N          63.6566   94.5969   -2.6689 N.am    1  UNL1       -0.2793
     47 C          63.6499   93.1509   -3.0677 C.3     1  UNL1        0.0976
     48 C          64.2946   93.5082   -4.3742 C.3     1  UNL1        0.0660
     49 C          64.2879   92.0623   -4.7730 C.3     1  UNL1        0.0767
     50 N          64.9325   92.4196   -6.0794 N.3     1  UNL1       -0.2712
     51 C          65.3837   91.6498   -7.2852 C.3     1  UNL1        0.0896
     52 C          64.9392   93.8656   -5.6806 C.3     1  UNL1        0.0767
     53 C          64.3012   94.9543   -3.9754 C.3     1  UNL1        0.0976
     54 O          57.1994   92.2369    5.0084 O.3     1  UNL1       -0.4687
     55 C          56.2448   91.0811    5.0636 C.3     1  UNL1        0.2526
@<TRIPOS>BOND
     1    26    27    1
     2    27    20    1
     3    20    21   ar
     4    21    22   ar
     5    22    23   ar
     6    23    24   ar
     7    24    28    1
     8    28    29    1
     9    24    25   ar
    10    25    10    1
    11    10    11    1
    12    11    12    1
    13    12    13    1
    14    13    14   ar
    15    14    15   ar
    16    15     1    1
    17     1     2    2
    18     2     3    1
    19     3    30    1
    20    30    32    1
    21    32    33   ar
    22    33    34   ar
    23    34    35   ar
    24    35    38    1
    25    38    39    1
    26    39    40    1
    27    40    41    1
    28    41    44    1
    29    44    45    2
    30    44    46   am
    31    46    47    1
    32    47    48    1
    33    48    49    1
    34    49    50    1
    35    50    51    1
    36    50    52    1
    37    48    53    1
    38    41    42    1
    39    42    43    1
    40    35    36   ar
    41    36    37   ar
    42    37    54    1
    43    54    55    1
    44     3     4    2
    45     4     5    1
    46     5     6    2
    47     6     7    1
    48     7     8    2
    49     8     9    1
    50    15    16   ar
    51    16    17   ar
    52    17    18    1
    53    18    19    2
    54    25    20   ar
    55    18    10   am
    56    17    13   ar
    57     9     1    1
    58    37    32   ar
    59     9     5    1
    60    43    38    1
    61    53    46    1
    62    52    48    1
    63    30    31    1
@<TRIPOS>MOLECULE
*****
 55 63 0 0 0
SMALL
GASTEIGER

@<TRIPOS>ATOM
      1 C          61.1354   88.5726    9.0364 C.2     1  UNL1        0.1542
      2 N          60.4070   89.6798    8.3340 N.2     1  UNL1       -0.0655
      3 C          59.5369   89.3732    7.1512 C.cat   1  UNL1        0.4642
      4 N          59.3952   87.9592    6.6709 N.2     1  UNL1        0.0296
      5 C          60.1237   86.8520    7.3733 C.2     1  UNL1        0.3685
      6 N          60.1770   85.3728    7.1298 N.2     1  UNL1       -0.0340
      7 C          61.0800   84.7654    8.1620 C.2     1  UNL1        0.2321
      8 C          61.5848   85.8691    9.0436 C.2     1  UNL1        0.0439
      9 C          60.9938   87.1587    8.5561 C.3     1  UNL1        0.1946
     10 N          64.9867   90.5664   13.8109 N.am    1  UNL1       -0.2526
     11 C          64.7162   89.1989   14.3645 C.3     1  UNL1        0.1229
     12 C          63.8274   88.2494   13.6171 C.3     1  UNL1        0.1280
     13 N          63.2092   88.6676   12.3160 N.ar    1  UNL1       -0.3206
     14 C          62.2981   87.9532   11.3623 C.ar    1  UNL1        0.0787
     15 C          62.0055   88.8793   10.2192 C.ar    1  UNL1        0.0498
     16 C          62.7358   90.1660   10.4664 C.ar    1  UNL1        0.0259
     17 C          63.4797   90.0352   11.7623 C.ar    1  UNL1        0.1147
     18 C          64.3684   90.9846   12.5098 C.2     1  UNL1        0.2687
     19 O          64.6390   92.3522   11.9561 O.2     1  UNL1       -0.2680
     20 C          65.3815   92.1774   15.8106 C.ar    1  UNL1       -0.0088
     21 C          66.2703   93.1269   16.5580 C.ar    1  UNL1       -0.0031
     22 C          67.6531   93.4148   16.0530 C.ar    1  UNL1       -0.0006
     23 C          68.1470   92.7533   14.8007 C.ar    1  UNL1       -0.0031
     24 C          67.2582   91.8039   14.0533 C.ar    1  UNL1       -0.0088
     25 C          65.8755   91.5159   14.5583 C.ar    1  UNL1        0.0462
     26 C          63.7118   90.5971   17.0211 C.3     1  UNL1        0.0051
     27 C          63.9988   91.8894   16.3156 C.3     1  UNL1        0.0276
     28 C          67.7523   91.1424   12.8009 C.3     1  UNL1        0.0276
     29 C          68.7887   91.8193   11.9538 C.3     1  UNL1        0.0051
     30 N          58.8085   90.4804    6.4488 N.pl3   1  UNL1       -0.1896
     31 H          57.9118   90.7503    6.7528 H       1  UNL1        0.2524
     32 C          59.4464   91.1766    5.2833 C.ar    1  UNL1        0.1435
     33 C          60.8868   90.9197    4.9529 C.ar    1  UNL1        0.0356
     34 C          61.5247   91.6159    3.7874 C.ar    1  UNL1        0.0174
     35 C          60.7221   92.5690    2.9521 C.ar    1  UNL1        0.0511
     36 C          59.2816   92.8258    3.2824 C.ar    1  UNL1        0.0541
     37 C          58.6438   92.1296    4.4480 C.ar    1  UNL1        0.1684
     38 N          61.3599   93.2651    1.7866 N.pl3   1  UNL1       -0.3074
     39 C          60.9581   92.9058    0.3868 C.3     1  UNL1        0.0913
     40 C          61.5960   93.6019   -0.7787 C.3     1  UNL1        0.0305
     41 C          62.6357   94.6574   -0.5444 C.3     1  UNL1        0.0801
     42 C          63.0375   95.0168    0.8554 C.3     1  UNL1        0.0305
     43 C          62.3996   94.3206    2.0209 C.3     1  UNL1        0.0913
     44 C          63.2736   95.3536   -1.7099 C.2     1  UNL1        0.2253
     45 O          63.4448   96.8437   -1.6915 O.2     1  UNL1       -0.2749
     46 N          63.7403   94.5597   -2.8939 N.am    1  UNL1       -0.2793
     47 C          63.7400   93.1057   -3.2629 C.3     1  UNL1        0.0976
     48 C          64.4003   93.4368   -4.5684 C.3     1  UNL1        0.0660
     49 C          64.4000   91.9830   -4.9373 C.3     1  UNL1        0.0767
     50 N          65.0603   92.3141   -6.2428 N.3     1  UNL1       -0.2712
     51 C          65.5271   91.5202   -7.4269 C.3     1  UNL1        0.0896
     52 C          65.0607   93.7680   -5.8739 C.3     1  UNL1        0.0767
     53 C          64.4007   94.8908   -4.1995 C.3     1  UNL1        0.0976
     54 O          57.2034   92.3865    4.7784 O.3     1  UNL1       -0.4687
     55 C          56.2576   91.2356    4.9550 C.3     1  UNL1        0.2526
@<TRIPOS>BOND
     1    26    27    1
     2    27    20    1
     3    20    21   ar
     4    21    22   ar
     5    22    23   ar
     6    23    24   ar
     7    24    28    1
     8    28    29    1
     9    24    25   ar
    10    25    10    1
    11    10    11    1
    12    11    12    1
    13    12    13    1
    14    13    14   ar
    15    14    15   ar
    16    15     1    1
    17     1     2    2
    18     2     3    1
    19     3    30    1
    20    30    32    1
    21    32    33   ar
    22    33    34   ar
    23    34    35   ar
    24    35    38    1
    25    38    39    1
    26    39    40    1
    27    40    41    1
    28    41    44    1
    29    44    45    2
    30    44    46   am
    31    46    47    1
    32    47    48    1
    33    48    49    1
    34    49    50    1
    35    50    51    1
    36    50    52    1
    37    48    53    1
    38    41    42    1
    39    42    43    1
    40    35    36   ar
    41    36    37   ar
    42    37    54    1
    43    54    55    1
    44     3     4    2
    45     4     5    1
    46     5     6    2
    47     6     7    1
    48     7     8    2
    49     8     9    1
    50    15    16   ar
    51    16    17   ar
    52    17    18    1
    53    18    19    2
    54    25    20   ar
    55    18    10   am
    56    17    13   ar
    57     9     1    1
    58    37    32   ar
    59     9     5    1
    60    43    38    1
    61    53    46    1
    62    52    48    1
    63    30    31    1
@<TRIPOS>MOLECULE
*****
 55 63 0 0 0
SMALL
GASTEIGER

@<TRIPOS>ATOM
      1 C          61.1999   88.4700    9.1117 C.2     1  UNL1        0.1542
      2 N          60.4077   89.5547    8.4442 N.2     1  UNL1       -0.0655
      3 C          59.5375   89.2313    7.2659 C.cat   1  UNL1        0.4642
      4 N          59.4596   87.8231    6.7552 N.2     1  UNL1        0.0296
      5 C          60.2518   86.7384    7.4228 C.2     1  UNL1        0.3685
      6 N          60.3752   85.2694    7.1448 N.2     1  UNL1       -0.0340
      7 C          61.3216   84.6851    8.1512 C.2     1  UNL1        0.2321
      8 C          61.7831   85.7928    9.0512 C.2     1  UNL1        0.0439
      9 C          61.1220   87.0617    8.6010 C.3     1  UNL1        0.1946
     10 N          65.0311   90.5402   13.8698 N.am    1  UNL1       -0.2526
     11 C          64.8012   89.1629   14.4177 C.3     1  UNL1        0.1229
     12 C          63.9327   88.1941   13.6713 C.3     1  UNL1        0.1280
     13 N          63.2941   88.6026   12.3770 N.ar    1  UNL1       -0.3206
     14 C          62.3955   87.8693   11.4258 C.ar    1  UNL1        0.0787
     15 C          62.0701   88.7934   10.2900 C.ar    1  UNL1        0.0498
     16 C          62.7675   90.0978   10.5392 C.ar    1  UNL1        0.0259
     17 C          63.5240   89.9799   11.8291 C.ar    1  UNL1        0.1147
     18 C          64.3925   90.9487   12.5755 C.2     1  UNL1        0.2687
     19 O          64.6224   92.3260   12.0276 O.2     1  UNL1       -0.2680
     20 C          67.2715   91.8345   14.1047 C.ar    1  UNL1       -0.0088
     21 C          68.1400   92.8034   14.8511 C.ar    1  UNL1       -0.0031
     22 C          67.6365   93.4467   16.1091 C.ar    1  UNL1       -0.0006
     23 C          66.2645   93.1212   16.6207 C.ar    1  UNL1       -0.0031
     24 C          65.3960   92.1523   15.8742 C.ar    1  UNL1       -0.0088
     25 C          65.8996   91.5090   14.6163 C.ar    1  UNL1        0.0462
     26 C          68.0821   92.0339   11.6443 C.3     1  UNL1        0.0051
     27 C          67.7750   91.1912   12.8467 C.3     1  UNL1        0.0276
     28 C          64.0240   91.8269   16.3859 C.3     1  UNL1        0.0276
     29 C          63.6797   90.4170   16.7648 C.3     1  UNL1        0.0051
     30 N          58.7453   90.3161    6.5984 N.pl3   1  UNL1       -0.1896
     31 H          57.8382   90.5296    6.9158 H       1  UNL1        0.2524
     32 C          59.3354   91.0757    5.4474 C.ar    1  UNL1        0.1435
     33 C          60.7798   90.8901    5.0880 C.ar    1  UNL1        0.0356
     34 C          61.3699   91.6497    3.9369 C.ar    1  UNL1        0.0174
     35 C          60.5154   92.5950    3.1453 C.ar    1  UNL1        0.0511
     36 C          59.0710   92.7806    3.5047 C.ar    1  UNL1        0.0541
     37 C          58.4810   92.0209    4.6558 C.ar    1  UNL1        0.1684
     38 N          61.1055   93.3546    1.9942 N.pl3   1  UNL1       -0.3074
     39 C          60.7176   94.7848    1.7619 C.3     1  UNL1        0.0913
     40 C          61.3077   95.5444    0.6108 C.3     1  UNL1        0.0305
     41 C          62.2856   94.8737   -0.3078 C.3     1  UNL1        0.0801
     42 C          62.6734   93.4434   -0.0754 C.3     1  UNL1        0.0305
     43 C          62.0834   92.6838    1.0757 C.3     1  UNL1        0.0913
     44 C          62.8757   95.6332   -1.4588 C.2     1  UNL1        0.2253
     45 O          64.2549   96.2122   -1.3472 O.2     1  UNL1       -0.2749
     46 N          62.0865   95.8137   -2.7216 N.am    1  UNL1       -0.2793
     47 C          60.7244   95.3949   -3.1902 C.3     1  UNL1        0.0976
     48 C          60.9704   96.0690   -4.5075 C.3     1  UNL1        0.0660
     49 C          59.6084   95.6503   -4.9760 C.3     1  UNL1        0.0767
     50 N          59.8543   96.3243   -6.2932 N.3     1  UNL1       -0.2712
     51 C          59.0651   96.5049   -7.5561 C.3     1  UNL1        0.0896
     52 C          61.2163   96.7431   -5.8247 C.3     1  UNL1        0.0767
     53 C          62.3324   96.4878   -4.0389 C.3     1  UNL1        0.0976
     54 O          57.0366   92.2065    5.0152 O.3     1  UNL1       -0.4687
     55 C          56.1029   91.0325    4.9997 C.3     1  UNL1        0.2526
@<TRIPOS>BOND
     1    26    27    1
     2    27    20    1
     3    20    21   ar
     4    21    22   ar
     5    22    23   ar
     6    23    24   ar
     7    24    28    1
     8    28    29    1
     9    24    25   ar
    10    25    10    1
    11    10    11    1
    12    11    12    1
    13    12    13    1
    14    13    14   ar
    15    14    15   ar
    16    15     1    1
    17     1     2    2
    18     2     3    1
    19     3    30    1
    20    30    32    1
    21    32    33   ar
    22    33    34   ar
    23    34    35   ar
    24    35    38    1
    25    38    39    1
    26    39    40    1
    27    40    41    1
    28    41    44    1
    29    44    45    2
    30    44    46   am
    31    46    47    1
    32    47    48    1
    33    48    49    1
    34    49    50    1
    35    50    51    1
    36    50    52    1
    37    48    53    1
    38    41    42    1
    39    42    43    1
    40    35    36   ar
    41    36    37   ar
    42    37    54    1
    43    54    55    1
    44     3     4    2
    45     4     5    1
    46     5     6    2
    47     6     7    1
    48     7     8    2
    49     8     9    1
    50    15    16   ar
    51    16    17   ar
    52    17    18    1
    53    18    19    2
    54    25    20   ar
    55    18    10   am
    56    17    13   ar
    57     9     1    1
    58    37    32   ar
    59     9     5    1
    60    43    38    1
    61    53    46    1
    62    52    48    1
    63    30    31    1
@<TRIPOS>MOLECULE
*****
 55 63 0 0 0
SMALL
GASTEIGER

@<TRIPOS>ATOM
      1 C          61.4653   89.2347    9.3496 C.2     1  UNL1        0.1542
      2 N          60.5545   89.9045    8.3639 N.2     1  UNL1       -0.0655
      3 C          59.5586   89.0920    7.5905 C.cat   1  UNL1        0.4642
      4 N          59.4735   87.6095    7.8030 N.2     1  UNL1        0.0296
      5 C          60.3843   86.9397    8.7888 C.2     1  UNL1        0.3685
      6 N          60.5300   85.5067    9.2078 N.2     1  UNL1       -0.0340
      7 C          61.6158   85.4338   10.2401 C.2     1  UNL1        0.2321
      8 C          62.1413   86.8216   10.4591 C.2     1  UNL1        0.0439
      9 C          61.3802   87.7523    9.5621 C.3     1  UNL1        0.1946
     10 N          65.7589   92.1634   13.1694 N.am    1  UNL1       -0.2526
     11 C          65.6777   93.2469   12.1354 C.3     1  UNL1        0.1229
     12 C          64.7746   93.0850   10.9486 C.3     1  UNL1        0.1280
     13 N          63.9529   91.8395   10.7960 N.ar    1  UNL1       -0.3206
     14 C          62.9807   91.4016    9.7409 C.ar    1  UNL1        0.0787
     15 C          62.4611   90.0473   10.1230 C.ar    1  UNL1        0.0498
     16 C          63.1121   89.6482   11.4141 C.ar    1  UNL1        0.0259
     17 C          64.0341   90.7559   11.8300 C.ar    1  UNL1        0.1147
     18 C          64.9371   90.9178   13.0167 C.2     1  UNL1        0.2687
     19 O          65.0184   89.8342   14.0508 O.2     1  UNL1       -0.2680
     20 C          66.0792   92.4147   15.7354 C.ar    1  UNL1       -0.0088
     21 C          66.9823   92.5766   16.9222 C.ar    1  UNL1       -0.0031
     22 C          68.4681   92.6490   16.7296 C.ar    1  UNL1       -0.0006
     23 C          69.0508   92.5595   15.3503 C.ar    1  UNL1       -0.0031
     24 C          68.1478   92.3976   14.1636 C.ar    1  UNL1       -0.0088
     25 C          66.6620   92.3252   14.3562 C.ar    1  UNL1        0.0462
     26 C          63.9697   91.1001   16.4917 C.3     1  UNL1        0.0051
     27 C          64.5934   92.3424   15.9279 C.3     1  UNL1        0.0276
     28 C          68.7306   92.3081   12.7843 C.3     1  UNL1        0.0276
     29 C          68.5988   91.0393   11.9952 C.3     1  UNL1        0.0051
     30 N          58.6479   89.7618    6.6047 N.pl3   1  UNL1       -0.1896
     31 H          57.6749   89.6218    6.6594 H       1  UNL1        0.2524
     32 C          59.2196   90.6451    5.5356 C.ar    1  UNL1        0.1435
     33 C          60.6748   90.5512    5.1840 C.ar    1  UNL1        0.0356
     34 C          61.2465   91.4345    4.1149 C.ar    1  UNL1        0.0174
     35 C          60.3631   92.4117    3.3974 C.ar    1  UNL1        0.0511
     36 C          58.9079   92.5056    3.7491 C.ar    1  UNL1        0.0541
     37 C          58.3362   91.6223    4.8182 C.ar    1  UNL1        0.1684
     38 N          60.9348   93.2950    2.3283 N.pl3   1  UNL1       -0.3074
     39 C          60.5900   94.7545    2.2974 C.3     1  UNL1        0.0913
     40 C          61.1617   95.6377    1.2283 C.3     1  UNL1        0.0305
     41 C          62.0783   95.0614    0.1902 C.3     1  UNL1        0.0801
     42 C          62.4231   93.6019    0.2211 C.3     1  UNL1        0.0305
     43 C          61.8514   92.7187    1.2902 C.3     1  UNL1        0.0913
     44 C          62.6501   95.9446   -0.8790 C.2     1  UNL1        0.2253
     45 O          63.8012   96.8537   -0.5648 O.2     1  UNL1       -0.2749
     46 N          62.0708   95.9188   -2.2623 N.am    1  UNL1       -0.2793
     47 C          60.9578   95.1688   -2.9323 C.3     1  UNL1        0.0976
     48 C          61.2515   95.8822   -4.2188 C.3     1  UNL1        0.0660
     49 C          60.1385   95.1323   -4.8887 C.3     1  UNL1        0.0767
     50 N          60.4322   95.8457   -6.1751 N.3     1  UNL1       -0.2712
     51 C          59.8529   95.8198   -7.5585 C.3     1  UNL1        0.0896
     52 C          61.5451   96.5956   -5.5051 C.3     1  UNL1        0.0767
     53 C          62.3645   96.6322   -3.5488 C.3     1  UNL1        0.0976
     54 O          56.8811   91.7162    5.1699 O.3     1  UNL1       -0.4687
     55 C          56.0948   90.4695    5.4487 C.3     1  UNL1        0.2526
@<TRIPOS>BOND
     1    26    27    1
     2    27    20    1
     3    20    21   ar
     4    21    22   ar
     5    22    23   ar
     6    23    24   ar
     7    24    28    1
     8    28    29    1
     9    24    25   ar
    10    25    10    1
    11    10    11    1
    12    11    12    1
    13    12    13    1
    14    13    14   ar
    15    14    15   ar
    16    15     1    1
    17     1     2    2
    18     2     3    1
    19     3    30    1
    20    30    32    1
    21    32    33   ar
    22    33    34   ar
    23    34    35   ar
    24    35    38    1
    25    38    39    1
    26    39    40    1
    27    40    41    1
    28    41    44    1
    29    44    45    2
    30    44    46   am
    31    46    47    1
    32    47    48    1
    33    48    49    1
    34    49    50    1
    35    50    51    1
    36    50    52    1
    37    48    53    1
    38    41    42    1
    39    42    43    1
    40    35    36   ar
    41    36    37   ar
    42    37    54    1
    43    54    55    1
    44     3     4    2
    45     4     5    1
    46     5     6    2
    47     6     7    1
    48     7     8    2
    49     8     9    1
    50    15    16   ar
    51    16    17   ar
    52    17    18    1
    53    18    19    2
    54    25    20   ar
    55    18    10   am
    56    17    13   ar
    57     9     1    1
    58    37    32   ar
    59     9     5    1
    60    43    38    1
    61    53    46    1
    62    52    48    1
    63    30    31    1
