@<TRIPOS>MOLECULE
*****
 61 67 0 0 0
SMALL
GASTEIGER

@<TRIPOS>ATOM
      1 N          62.2813   94.4661   -3.5101 N.3     1  UNL1       -0.1862
      2 C          61.1446   94.0967   -4.4164 C.3     1  UNL1        0.1775
      3 C          59.8276   93.6761   -3.8344 C.2     1  UNL1        0.2452
      4 O          58.6909   93.3068   -4.7408 O.2     1  UNL1       -0.2732
      5 N          59.6473   93.6249   -2.3462 N.am    1  UNL1       -0.2541
      6 C          58.3303   93.2044   -1.7643 C.3     1  UNL1        0.1577
      7 C          58.1500   93.1532   -0.2761 C.2     1  UNL1        0.2445
      8 O          56.8330   92.7326    0.3058 O.2     1  UNL1       -0.2731
      9 N          59.2868   93.5226    0.6303 N.am    1  UNL1       -0.2705
     10 C          60.6038   93.9431    0.0484 C.3     1  UNL1        0.1359
     11 C          60.7840   93.9943   -1.4399 C.3     1  UNL1        0.1908
     12 N          62.1010   94.4149   -2.0219 N.am    1  UNL1       -0.1863
     13 C          63.2378   94.7843   -1.1155 C.2     1  UNL1        0.3191
     14 O          63.0575   94.7331    0.3727 O.2     1  UNL1       -0.2512
     15 N          64.5548   95.2048   -1.6974 N.am    1  UNL1       -0.2836
     16 H          64.6731   95.2384   -2.6742 H       1  UNL1        0.1513
     17 C          63.5983   94.8867   -4.0920 C.3     1  UNL1        0.1188
     18 C          64.5829   95.5520   -6.4024 C.2     1  UNL1       -0.0034
     19 C          63.9392   94.5332   -5.5093 C.2     1  UNL1       -0.0071
     20 C          57.1936   92.8350   -2.6706 C.3     1  UNL1        0.0556
     21 C          56.0973   93.8229   -2.9396 C.ar    1  UNL1       -0.0198
     22 C          55.1606   94.2220   -1.8382 C.ar    1  UNL1       -0.0011
     23 C          54.0643   95.2098   -2.1071 C.ar    1  UNL1        0.0363
     24 C          53.9048   95.7986   -3.4775 C.ar    1  UNL1        0.1337
     25 O          52.8085   96.7865   -3.7464 O.3     1  UNL1       -0.5055
     26 C          54.8416   95.3995   -4.5789 C.ar    1  UNL1        0.0363
     27 C          55.9379   94.4116   -4.3100 C.ar    1  UNL1       -0.0011
     28 H          52.2234   97.0358   -3.0584 H       1  UNL1        0.2922
     29 C          59.1065   93.4714    2.1185 C.3     1  UNL1        0.1217
     30 C          59.9520   92.5483    2.9451 C.ar    1  UNL1        0.0135
     31 C          61.4204   92.4239    2.6653 C.ar    1  UNL1       -0.0012
     32 C          62.2658   91.5009    3.4918 C.ar    1  UNL1       -0.0002
     33 C          61.6429   90.7024    4.5982 C.ar    1  UNL1        0.0016
     34 C          60.1745   90.8267    4.8781 C.ar    1  UNL1        0.0214
     35 C          59.2874   90.1713    5.8947 C.ar    1  UNL1        0.0722
     36 C          57.8937   90.6892    5.6964 C.ar    1  UNL1        0.0805
     37 N          57.9194   91.6647    4.5573 N.ar    1  UNL1       -0.3241
     38 C          56.7422   92.4223    4.0185 C.3     1  UNL1        0.1305
     39 C          59.3290   91.7497    4.0515 C.ar    1  UNL1        0.0577
     40 C          59.7184   89.1732    6.9282 C.2     1  UNL1        0.2510
     41 O          59.5451   87.7055    6.6716 O.2     1  UNL1       -0.2698
     42 N          60.3228   89.6427    8.2182 N.am    1  UNL1       -0.2791
     43 H          60.4365   90.6060    8.3867 H       1  UNL1        0.1552
     44 C          60.7538   88.6447    9.2517 C.ar    1  UNL1        0.0702
     45 C          60.7846   87.1831    8.9158 C.ar    1  UNL1        0.0211
     46 C          61.2156   86.1850    9.9492 C.ar    1  UNL1        0.0590
     47 C          61.6157   86.6484   11.3186 C.ar    1  UNL1        0.2250
     48 N          61.5849   88.1100   11.6545 N.ar    1  UNL1       -0.2088
     49 C          61.1539   89.1082   10.6210 C.ar    1  UNL1        0.1167
     50 O          62.0467   85.6504   12.3520 O.3     1  UNL1       -0.4575
     51 C          63.2657   84.8079   12.1186 C.3     1  UNL1        0.2390
     52 C          63.8660   84.0275   13.2502 C.3     1  UNL1        0.1895
     53 O          63.6445   82.5467   13.3407 O.3     1  UNL1       -0.3471
     54 C          62.2713   82.0093   13.6148 C.3     1  UNL1        0.1743
     55 C          65.6915   95.5742   -0.7911 C.3     1  UNL1        0.1177
     56 C          65.4988   95.5632    0.6964 C.ar    1  UNL1       -0.0025
     57 C          65.4526   96.8556    1.4563 C.ar    1  UNL1       -0.0026
     58 C          65.2599   96.8445    2.9439 C.ar    1  UNL1       -0.0003
     59 C          65.1133   95.5411    3.6715 C.ar    1  UNL1       -0.0000
     60 C          65.1595   94.2486    2.9116 C.ar    1  UNL1       -0.0003
     61 C          65.3522   94.2596    1.4240 C.ar    1  UNL1       -0.0026
@<TRIPOS>BOND
     1    18    19    2
     2    19    17    1
     3    17     1    1
     4     1     2    1
     5     2     3    1
     6     3     4    2
     7     3     5   am
     8     5     6    1
     9     6    20    1
    10    20    21    1
    11    21    22   ar
    12    22    23   ar
    13    23    24   ar
    14    24    25    1
    15    24    26   ar
    16    26    27   ar
    17     6     7    1
    18     7     8    2
    19     7     9   am
    20     9    29    1
    21    29    30    1
    22    30    31   ar
    23    31    32   ar
    24    32    33   ar
    25    33    34   ar
    26    34    35   ar
    27    35    40    1
    28    40    41    2
    29    40    42   am
    30    42    44    1
    31    44    45   ar
    32    45    46   ar
    33    46    47   ar
    34    47    50    1
    35    50    51    1
    36    51    52    1
    37    52    53    1
    38    53    54    1
    39    47    48   ar
    40    48    49   ar
    41    35    36   ar
    42    36    37   ar
    43    37    38    1
    44    37    39   ar
    45     9    10    1
    46    11    10    1
    47    11    12    1
    48    12    13   am
    49    13    14    2
    50    13    15   am
    51    15    55    1
    52    55    56    1
    53    56    57   ar
    54    57    58   ar
    55    58    59   ar
    56    59    60   ar
    57    60    61   ar
    58    12     1    1
    59    61    56   ar
    60    11     5    1
    61    27    21   ar
    62    39    30   ar
    63    39    34   ar
    64    49    44   ar
    65    25    28    1
    66    42    43    1
    67    15    16    1
@<TRIPOS>MOLECULE
*****
 61 67 0 0 0
SMALL
GASTEIGER

@<TRIPOS>ATOM
      1 N          62.3690   95.1108   -3.3866 N.3     1  UNL1       -0.1862
      2 C          61.2424   94.9909   -4.3696 C.3     1  UNL1        0.1775
      3 C          59.8645   94.6398   -3.8920 C.2     1  UNL1        0.2452
      4 O          58.7378   94.5199   -4.8751 O.2     1  UNL1       -0.2732
      5 N          59.6131   94.4086   -2.4314 N.am    1  UNL1       -0.2541
      6 C          58.2352   94.0575   -1.9538 C.3     1  UNL1        0.1577
      7 C          57.9839   93.8263   -0.4932 C.2     1  UNL1        0.2445
      8 O          56.6060   93.4753   -0.0157 O.2     1  UNL1       -0.2731
      9 N          59.1105   93.9462    0.4899 N.am    1  UNL1       -0.2705
     10 C          60.4885   94.2973    0.0123 C.3     1  UNL1        0.1359
     11 C          60.7397   94.5285   -1.4484 C.3     1  UNL1        0.1908
     12 N          62.1177   94.8796   -1.9260 N.am    1  UNL1       -0.1863
     13 C          63.2443   94.9995   -0.9429 C.2     1  UNL1        0.3191
     14 O          62.9930   94.7683    0.5177 O.2     1  UNL1       -0.2512
     15 N          64.6222   95.3506   -1.4205 N.am    1  UNL1       -0.2836
     16 H          64.7871   95.5023   -2.3791 H       1  UNL1        0.1513
     17 C          63.7469   95.4619   -3.8641 C.3     1  UNL1        0.1188
     18 C          64.3485   92.9719   -4.2977 C.2     1  UNL1       -0.0034
     19 C          64.5858   94.4300   -4.5579 C.2     1  UNL1       -0.0071
     20 C          57.1086   93.9376   -2.9368 C.3     1  UNL1        0.0556
     21 C          56.4886   92.5988   -3.2074 C.ar    1  UNL1       -0.0198
     22 C          56.2203   92.1681   -4.6189 C.ar    1  UNL1       -0.0011
     23 C          55.6003   90.8293   -4.8895 C.ar    1  UNL1        0.0363
     24 C          55.2487   89.9212   -3.7486 C.ar    1  UNL1        0.1337
     25 O          54.6287   88.5824   -4.0192 O.3     1  UNL1       -0.5055
     26 C          55.5170   90.3519   -2.3370 C.ar    1  UNL1        0.0363
     27 C          56.1370   91.6907   -2.0664 C.ar    1  UNL1       -0.0011
     28 H          54.4611   88.3133   -4.9010 H       1  UNL1        0.2922
     29 C          58.8592   93.7151    1.9504 C.3     1  UNL1        0.1217
     30 C          59.7421   92.7819    2.7249 C.ar    1  UNL1        0.0135
     31 C          61.1967   92.6647    2.3781 C.ar    1  UNL1       -0.0012
     32 C          62.0796   91.7315    3.1525 C.ar    1  UNL1       -0.0002
     33 C          61.5078   90.9156    4.2737 C.ar    1  UNL1        0.0016
     34 C          60.0532   91.0327    4.6205 C.ar    1  UNL1        0.0214
     35 C          59.2133   90.3606    5.6659 C.ar    1  UNL1        0.0722
     36 C          57.8114   90.8784    5.5376 C.ar    1  UNL1        0.0805
     37 N          57.7848   91.8705    4.4129 N.ar    1  UNL1       -0.3241
     38 C          56.5837   92.6333    3.9383 C.3     1  UNL1        0.1305
     39 C          59.1703   91.9659    3.8461 C.ar    1  UNL1        0.0577
     40 C          59.6915   89.3484    6.6644 C.2     1  UNL1        0.2510
     41 O          59.9373   87.9317    6.2372 O.2     1  UNL1       -0.2698
     42 N          59.9238   89.7529    8.0900 N.am    1  UNL1       -0.2791
     43 H          59.7624   90.6828    8.3704 H       1  UNL1        0.1552
     44 C          60.4019   88.7408    9.0885 C.ar    1  UNL1        0.0702
     45 C          60.5607   87.3052    8.6838 C.ar    1  UNL1        0.0211
     46 C          61.0388   86.2930    9.6822 C.ar    1  UNL1        0.0590
     47 C          61.3581   86.7164   11.0853 C.ar    1  UNL1        0.2250
     48 N          61.1994   88.1520   11.4900 N.ar    1  UNL1       -0.2088
     49 C          60.7212   89.1642   10.4916 C.ar    1  UNL1        0.1167
     50 O          61.8363   85.7043   12.0838 O.3     1  UNL1       -0.4575
     51 C          63.2794   85.6774   12.4922 C.3     1  UNL1        0.2390
     52 C          63.9625   84.3665   12.7469 C.3     1  UNL1        0.1895
     53 O          63.1773   83.2011   13.2716 O.3     1  UNL1       -0.3471
     54 C          63.4929   81.8119   12.8022 C.3     1  UNL1        0.1743
     55 C          65.7488   95.4705   -0.4375 C.3     1  UNL1        0.1177
     56 C          65.4594   95.5105    1.0338 C.ar    1  UNL1       -0.0025
     57 C          65.1260   94.2453    1.7673 C.ar    1  UNL1       -0.0026
     58 C          64.8366   94.2853    3.2386 C.ar    1  UNL1       -0.0003
     59 C          64.8806   95.5906    3.9764 C.ar    1  UNL1       -0.0000
     60 C          65.2140   96.8559    3.2429 C.ar    1  UNL1       -0.0003
     61 C          65.5034   96.8159    1.7716 C.ar    1  UNL1       -0.0026
@<TRIPOS>BOND
     1    18    19    2
     2    19    17    1
     3    17     1    1
     4     1     2    1
     5     2     3    1
     6     3     4    2
     7     3     5   am
     8     5     6    1
     9     6    20    1
    10    20    21    1
    11    21    22   ar
    12    22    23   ar
    13    23    24   ar
    14    24    25    1
    15    24    26   ar
    16    26    27   ar
    17     6     7    1
    18     7     8    2
    19     7     9   am
    20     9    29    1
    21    29    30    1
    22    30    31   ar
    23    31    32   ar
    24    32    33   ar
    25    33    34   ar
    26    34    35   ar
    27    35    40    1
    28    40    41    2
    29    40    42   am
    30    42    44    1
    31    44    45   ar
    32    45    46   ar
    33    46    47   ar
    34    47    50    1
    35    50    51    1
    36    51    52    1
    37    52    53    1
    38    53    54    1
    39    47    48   ar
    40    48    49   ar
    41    35    36   ar
    42    36    37   ar
    43    37    38    1
    44    37    39   ar
    45     9    10    1
    46    11    10    1
    47    11    12    1
    48    12    13   am
    49    13    14    2
    50    13    15   am
    51    15    55    1
    52    55    56    1
    53    56    57   ar
    54    57    58   ar
    55    58    59   ar
    56    59    60   ar
    57    60    61   ar
    58    12     1    1
    59    61    56   ar
    60    11     5    1
    61    27    21   ar
    62    39    30   ar
    63    39    34   ar
    64    49    44   ar
    65    25    28    1
    66    42    43    1
    67    15    16    1
