@<TRIPOS>MOLECULE
*****
 25 26 0 0 0
SMALL
GASTEIGER

@<TRIPOS>ATOM
      1 O          62.9476   86.8620    9.9076 O.2     1  UNL1       -0.1499
      2 S          61.7656   86.9123   10.8297 S.O2    1  UNL1        0.0736
      3 O          60.9022   86.9134   11.6844 O.2     1  UNL1       -0.1499
      4 C          60.8864   87.3093    9.6810 C.ar    1  UNL1        0.1290
      5 C          60.2615   86.2554    8.8157 C.ar    1  UNL1        0.0201
      6 C          59.3822   86.6524    7.6671 C.ar    1  UNL1        0.0014
      7 C          59.1279   88.1033    7.3839 C.ar    1  UNL1        0.0000
      8 C          59.7527   89.1571    8.2492 C.ar    1  UNL1        0.0052
      9 C          60.6320   88.7602    9.3978 C.ar    1  UNL1        0.0902
     10 C          61.2569   89.8140   10.2632 C.3     1  UNL1        0.4198
     11 F          61.8817   90.8679   11.1286 F       1  UNL1       -0.1658
     12 F          60.0137   89.8632   11.1011 F       1  UNL1       -0.1658
     13 F          62.3180   89.8786    9.6750 F       1  UNL1       -0.1658
     14 N          62.6448   86.5152   11.9783 N.pl3   1  UNL1       -0.2135
     15 H          63.1910   87.1935   12.4375 H       1  UNL1        0.1738
     16 C          62.6919   85.0847   12.4273 C.ar    1  UNL1        0.0839
     17 C          62.5554   84.7507   13.8832 C.ar    1  UNL1        0.1146
     18 N          62.6024   83.3203   14.3321 N.ar    1  UNL1       -0.2410
     19 C          62.7860   82.2238   13.3251 C.ar    1  UNL1        0.1028
     20 C          62.9225   82.5578   11.8692 C.ar    1  UNL1        0.0918
     21 C          62.8754   83.9883   11.4203 C.ar    1  UNL1        0.0229
     22 C          63.1061   81.4613   10.8622 C.3     1  UNL1        0.4201
     23 F          63.2896   80.3649    9.8552 F       1  UNL1       -0.1658
     24 F          63.6421   82.4566    9.8762 F       1  UNL1       -0.1658
     25 F          62.5700   80.4661   11.8481 F       1  UNL1       -0.1658
@<TRIPOS>BOND
     1     1     2    2
     2     2     3    2
     3     2    14    1
     4    14    16    1
     5    16    17   ar
     6    17    18   ar
     7    18    19   ar
     8    19    20   ar
     9    20    22    1
    10    22    23    1
    11    22    24    1
    12    22    25    1
    13    20    21   ar
    14     2     4    1
    15     4     5   ar
    16     5     6   ar
    17     6     7   ar
    18     7     8   ar
    19     8     9   ar
    20     9    10    1
    21    10    11    1
    22    10    12    1
    23    10    13    1
    24    21    16   ar
    25     9     4   ar
    26    14    15    1
@<TRIPOS>MOLECULE
*****
 25 26 0 0 0
SMALL
GASTEIGER

@<TRIPOS>ATOM
      1 O          63.1152   85.9063    8.4991 O.2     1  UNL1       -0.1499
      2 S          62.1803   85.6820    9.6504 S.O2    1  UNL1        0.0736
      3 O          61.5278   85.4115   10.6390 O.2     1  UNL1       -0.1499
      4 C          61.1760   86.5959    9.0130 C.ar    1  UNL1        0.1290
      5 C          60.2241   86.0628    7.9835 C.ar    1  UNL1        0.0201
      6 C          59.2199   86.9766    7.3461 C.ar    1  UNL1        0.0014
      7 C          59.1674   88.4235    7.7381 C.ar    1  UNL1        0.0000
      8 C          60.1193   88.9566    8.7676 C.ar    1  UNL1        0.0052
      9 C          61.1235   88.0428    9.4050 C.ar    1  UNL1        0.0902
     10 C          62.0754   88.5759   10.4345 C.3     1  UNL1        0.4198
     11 F          63.0272   89.1090   11.4639 F       1  UNL1       -0.1658
     12 F          61.0772   88.2753   11.5130 F       1  UNL1       -0.1658
     13 F          62.9718   88.8702    9.6690 F       1  UNL1       -0.1658
     14 N          63.1845   84.7682   10.2879 N.pl3   1  UNL1       -0.2135
     15 H          64.0006   84.5157    9.7985 H       1  UNL1        0.1738
     16 C          62.9453   84.2391   11.6710 C.ar    1  UNL1        0.0839
     17 C          63.0449   85.1573   12.8529 C.ar    1  UNL1        0.1146
     18 N          62.8058   84.6281   14.2359 N.ar    1  UNL1       -0.2410
     19 C          62.4670   83.1808   14.4370 C.ar    1  UNL1        0.1028
     20 C          62.3674   82.2626   13.2551 C.ar    1  UNL1        0.0918
     21 C          62.6066   82.7917   11.8721 C.ar    1  UNL1        0.0229
     22 C          62.0287   80.8152   13.4562 C.3     1  UNL1        0.4201
     23 F          61.6900   79.3679   13.6573 F       1  UNL1       -0.1658
     24 F          61.0215   81.1961   14.5005 F       1  UNL1       -0.1658
     25 F          63.0359   80.4344   12.4119 F       1  UNL1       -0.1658
@<TRIPOS>BOND
     1     1     2    2
     2     2     3    2
     3     2    14    1
     4    14    16    1
     5    16    17   ar
     6    17    18   ar
     7    18    19   ar
     8    19    20   ar
     9    20    22    1
    10    22    23    1
    11    22    24    1
    12    22    25    1
    13    20    21   ar
    14     2     4    1
    15     4     5   ar
    16     5     6   ar
    17     6     7   ar
    18     7     8   ar
    19     8     9   ar
    20     9    10    1
    21    10    11    1
    22    10    12    1
    23    10    13    1
    24    21    16   ar
    25     9     4   ar
    26    14    15    1
@<TRIPOS>MOLECULE
*****
 25 26 0 0 0
SMALL
GASTEIGER

@<TRIPOS>ATOM
      1 O          62.6936   85.1012   13.3449 O.2     1  UNL1       -0.1499
      2 S          63.8969   84.3250   13.7916 S.O2    1  UNL1        0.0736
      3 O          64.9381   83.8277   14.1719 O.2     1  UNL1       -0.1499
      4 C          63.1492   83.0424   13.5773 C.ar    1  UNL1        0.1290
      5 C          62.3092   82.4707   14.6808 C.ar    1  UNL1        0.0201
      6 C          61.5615   81.1881   14.4666 C.ar    1  UNL1        0.0014
      7 C          61.6537   80.4773   13.1490 C.ar    1  UNL1        0.0000
      8 C          62.4937   81.0490   12.0456 C.ar    1  UNL1        0.0052
      9 C          63.2414   82.3316   12.2597 C.ar    1  UNL1        0.0902
     10 C          64.0814   82.9033   11.1563 C.3     1  UNL1        0.4198
     11 F          64.9214   83.4750   10.0528 F       1  UNL1       -0.1658
     12 F          62.9128   83.7200   10.6899 F       1  UNL1       -0.1658
     13 F          65.1038   82.3032   11.4223 F       1  UNL1       -0.1658
     14 N          64.6446   85.6076   14.0058 N.pl3   1  UNL1       -0.2135
     15 H          65.4737   85.7836   13.5049 H       1  UNL1        0.1738
     16 C          64.1292   86.6220   14.9833 C.ar    1  UNL1        0.0839
     17 C          63.3927   86.1740   16.2108 C.ar    1  UNL1        0.1146
     18 N          62.8773   87.1884   17.1882 N.ar    1  UNL1       -0.2410
     19 C          63.0985   88.6507   16.9381 C.ar    1  UNL1        0.1028
     20 C          63.8351   89.0987   15.7107 C.ar    1  UNL1        0.0918
     21 C          64.3504   88.0844   14.7333 C.ar    1  UNL1        0.0229
     22 C          64.0562   90.5611   15.4606 C.3     1  UNL1        0.4201
     23 F          64.2774   92.0235   15.2106 F       1  UNL1       -0.1658
     24 F          64.6222   90.2442   14.1081 F       1  UNL1       -0.1658
     25 F          63.4903   90.8780   16.8131 F       1  UNL1       -0.1658
@<TRIPOS>BOND
     1     1     2    2
     2     2     3    2
     3     2    14    1
     4    14    16    1
     5    16    17   ar
     6    17    18   ar
     7    18    19   ar
     8    19    20   ar
     9    20    22    1
    10    22    23    1
    11    22    24    1
    12    22    25    1
    13    20    21   ar
    14     2     4    1
    15     4     5   ar
    16     5     6   ar
    17     6     7   ar
    18     7     8   ar
    19     8     9   ar
    20     9    10    1
    21    10    11    1
    22    10    12    1
    23    10    13    1
    24    21    16   ar
    25     9     4   ar
    26    14    15    1
@<TRIPOS>MOLECULE
*****
 25 26 0 0 0
SMALL
GASTEIGER

@<TRIPOS>ATOM
      1 O          61.2407   90.1002   11.6554 O.2     1  UNL1       -0.1499
      2 S          62.3542   89.1086   11.8193 S.O2    1  UNL1        0.0736
      3 O          63.1518   88.2004   11.9425 O.2     1  UNL1       -0.1499
      4 C          63.3428   90.2333   11.9073 C.ar    1  UNL1        0.1290
      5 C          63.6585   91.0513   10.6902 C.ar    1  UNL1        0.0201
      6 C          64.6471   92.1759   10.7781 C.ar    1  UNL1        0.0014
      7 C          65.3200   92.4827   12.0831 C.ar    1  UNL1        0.0000
      8 C          65.0043   91.6648   13.3002 C.ar    1  UNL1        0.0052
      9 C          64.0157   90.5401   13.2123 C.ar    1  UNL1        0.0902
     10 C          63.7000   89.7222   14.4294 C.3     1  UNL1        0.4198
     11 F          63.3843   88.9043   15.6465 F       1  UNL1       -0.1658
     12 F          64.9945   88.9817   14.2675 F       1  UNL1       -0.1658
     13 F          62.6282   90.2367   14.6797 F       1  UNL1       -0.1658
     14 N          61.3656   87.9839   11.7314 N.pl3   1  UNL1       -0.2135
     15 H          61.0165   87.5700   12.5536 H       1  UNL1        0.1738
     16 C          60.9089   87.4899   10.3907 C.ar    1  UNL1        0.0839
     17 C          59.5655   87.8944    9.8601 C.ar    1  UNL1        0.1146
     18 N          59.1089   87.4003    8.5195 N.ar    1  UNL1       -0.2410
     19 C          59.9957   86.5017    7.7094 C.ar    1  UNL1        0.1028
     20 C          61.3391   86.0972    8.2400 C.ar    1  UNL1        0.0918
     21 C          61.7957   86.5913    9.5807 C.ar    1  UNL1        0.0229
     22 C          62.2259   85.1987    7.4300 C.3     1  UNL1        0.4201
     23 F          63.1127   84.3001    6.6199 F       1  UNL1       -0.1658
     24 F          61.0456   84.7768    6.6059 F       1  UNL1       -0.1658
     25 F          63.4061   85.6206    8.2540 F       1  UNL1       -0.1658
@<TRIPOS>BOND
     1     1     2    2
     2     2     3    2
     3     2    14    1
     4    14    16    1
     5    16    17   ar
     6    17    18   ar
     7    18    19   ar
     8    19    20   ar
     9    20    22    1
    10    22    23    1
    11    22    24    1
    12    22    25    1
    13    20    21   ar
    14     2     4    1
    15     4     5   ar
    16     5     6   ar
    17     6     7   ar
    18     7     8   ar
    19     8     9   ar
    20     9    10    1
    21    10    11    1
    22    10    12    1
    23    10    13    1
    24    21    16   ar
    25     9     4   ar
    26    14    15    1
@<TRIPOS>MOLECULE
*****
 25 26 0 0 0
SMALL
GASTEIGER

@<TRIPOS>ATOM
      1 O          64.6886   84.4784   13.5739 O.2     1  UNL1       -0.1499
      2 S          63.2257   84.7678   13.4124 S.O2    1  UNL1        0.0736
      3 O          62.0764   85.1452   13.2993 O.2     1  UNL1       -0.1499
      4 C          62.9545   83.3023   13.2423 C.ar    1  UNL1        0.1290
      5 C          62.5009   82.4826   14.4137 C.ar    1  UNL1        0.0201
      6 C          62.2297   81.0172   14.2436 C.ar    1  UNL1        0.0014
      7 C          62.4121   80.3715   12.9021 C.ar    1  UNL1        0.0000
      8 C          62.8658   81.1912   11.7307 C.ar    1  UNL1        0.0052
      9 C          63.1370   82.6566   11.9007 C.ar    1  UNL1        0.0902
     10 C          63.5906   83.4763   10.7293 C.3     1  UNL1        0.4198
     11 F          64.0442   84.2960    9.5578 F       1  UNL1       -0.1658
     12 F          65.0071   83.0515   10.9806 F       1  UNL1       -0.1658
     13 F          62.4966   83.8987   10.4116 F       1  UNL1       -0.1658
     14 N          63.4969   86.2332   13.5825 N.pl3   1  UNL1       -0.2135
     15 H          63.9351   86.5610   14.4009 H       1  UNL1        0.1738
     16 C          63.1002   87.1993   12.5057 C.ar    1  UNL1        0.0839
     17 C          63.4337   88.6552   12.6443 C.ar    1  UNL1        0.1146
     18 N          63.0371   89.6212   11.5675 N.ar    1  UNL1       -0.2410
     19 C          62.3070   89.1313   10.3521 C.ar    1  UNL1        0.1028
     20 C          61.9736   87.6754   10.2135 C.ar    1  UNL1        0.0918
     21 C          62.3702   86.7094   11.2903 C.ar    1  UNL1        0.0229
     22 C          61.2436   87.1856    8.9982 C.3     1  UNL1        0.4201
     23 F          60.5136   86.6957    7.7828 F       1  UNL1       -0.1658
     24 F          60.0091   87.9092    9.4480 F       1  UNL1       -0.1658
     25 F          62.4781   86.4620    8.5483 F       1  UNL1       -0.1658
@<TRIPOS>BOND
     1     1     2    2
     2     2     3    2
     3     2    14    1
     4    14    16    1
     5    16    17   ar
     6    17    18   ar
     7    18    19   ar
     8    19    20   ar
     9    20    22    1
    10    22    23    1
    11    22    24    1
    12    22    25    1
    13    20    21   ar
    14     2     4    1
    15     4     5   ar
    16     5     6   ar
    17     6     7   ar
    18     7     8   ar
    19     8     9   ar
    20     9    10    1
    21    10    11    1
    22    10    12    1
    23    10    13    1
    24    21    16   ar
    25     9     4   ar
    26    14    15    1
@<TRIPOS>MOLECULE
*****
 25 26 0 0 0
SMALL
GASTEIGER

@<TRIPOS>ATOM
      1 O          60.4088   89.2149   11.7760 O.2     1  UNL1       -0.1499
      2 S          61.7164   88.7891   11.1768 S.O2    1  UNL1        0.0736
      3 O          62.8391   88.5002   10.8133 O.2     1  UNL1       -0.1499
      4 C          60.9918   88.2474    9.9803 C.ar    1  UNL1        0.1290
      5 C          60.2441   89.1777    9.0717 C.ar    1  UNL1        0.0201
      6 C          59.5196   88.6360    7.8752 C.ar    1  UNL1        0.0014
      7 C          59.5426   87.1641    7.5874 C.ar    1  UNL1        0.0000
      8 C          60.2902   86.2338    8.4960 C.ar    1  UNL1        0.0052
      9 C          61.0148   86.7755    9.6925 C.ar    1  UNL1        0.0902
     10 C          61.7624   85.8452   10.6011 C.3     1  UNL1        0.4198
     11 F          62.5100   84.9149   11.5098 F       1  UNL1       -0.1658
     12 F          62.8164   85.6648    9.5492 F       1  UNL1       -0.1658
     13 F          60.9889   85.8984   11.5365 F       1  UNL1       -0.1658
     14 N          62.4410   89.3307   12.3733 N.pl3   1  UNL1       -0.2135
     15 H          62.2638   88.9573   13.2668 H       1  UNL1        0.1738
     16 C          63.4357   90.4414   12.2083 C.ar    1  UNL1        0.0839
     17 C          63.5263   91.1798   10.9058 C.ar    1  UNL1        0.1146
     18 N          64.5209   92.2904   10.7410 N.ar    1  UNL1       -0.2410
     19 C          65.4250   92.6626   11.8786 C.ar    1  UNL1        0.1028
     20 C          65.3344   91.9242   13.1811 C.ar    1  UNL1        0.0918
     21 C          64.3397   90.8136   13.3459 C.ar    1  UNL1        0.0229
     22 C          66.2384   92.2964   14.3187 C.3     1  UNL1        0.4201
     23 F          67.1425   92.6685   15.4563 F       1  UNL1       -0.1658
     24 F          66.1528   93.7384   13.9149 F       1  UNL1       -0.1658
     25 F          66.3240   90.8543   14.7224 F       1  UNL1       -0.1658
@<TRIPOS>BOND
     1     1     2    2
     2     2     3    2
     3     2    14    1
     4    14    16    1
     5    16    17   ar
     6    17    18   ar
     7    18    19   ar
     8    19    20   ar
     9    20    22    1
    10    22    23    1
    11    22    24    1
    12    22    25    1
    13    20    21   ar
    14     2     4    1
    15     4     5   ar
    16     5     6   ar
    17     6     7   ar
    18     7     8   ar
    19     8     9   ar
    20     9    10    1
    21    10    11    1
    22    10    12    1
    23    10    13    1
    24    21    16   ar
    25     9     4   ar
    26    14    15    1
@<TRIPOS>MOLECULE
*****
 25 26 0 0 0
SMALL
GASTEIGER

@<TRIPOS>ATOM
      1 O          59.9295   89.6653   11.2477 O.2     1  UNL1       -0.1499
      2 S          61.1603   89.8285   10.4060 S.O2    1  UNL1        0.0736
      3 O          62.1934   90.0724    9.8150 O.2     1  UNL1       -0.1499
      4 C          60.7184   88.6873    9.5385 C.ar    1  UNL1        0.1290
      5 C          59.8249   88.9425    8.3610 C.ar    1  UNL1        0.0201
      6 C          59.3831   87.8014    7.4936 C.ar    1  UNL1        0.0014
      7 C          59.8347   86.4050    7.8036 C.ar    1  UNL1        0.0000
      8 C          60.7282   86.1498    8.9811 C.ar    1  UNL1        0.0052
      9 C          61.1700   87.2909    9.8486 C.ar    1  UNL1        0.0902
     10 C          62.0635   87.0357   11.0261 C.3     1  UNL1        0.4198
     11 F          62.9570   86.7805   12.2036 F       1  UNL1       -0.1658
     12 F          60.9202   86.3937   11.7545 F       1  UNL1       -0.1658
     13 F          63.0709   87.5266   10.5567 F       1  UNL1       -0.1658
     14 N          61.6022   90.9697   11.2734 N.pl3   1  UNL1       -0.2135
     15 H          61.1298   91.8323   11.2303 H       1  UNL1        0.1738
     16 C          62.7639   90.7964   12.2065 C.ar    1  UNL1        0.0839
     17 C          63.9833   91.6564   12.0538 C.ar    1  UNL1        0.1146
     18 N          65.1448   91.4832   12.9868 N.ar    1  UNL1       -0.2410
     19 C          65.0870   90.4499   14.0727 C.ar    1  UNL1        0.1028
     20 C          63.8676   89.5899   14.2254 C.ar    1  UNL1        0.0918
     21 C          62.7060   89.7632   13.2924 C.ar    1  UNL1        0.0229
     22 C          63.8097   88.5567   15.3113 C.3     1  UNL1        0.4201
     23 F          63.7519   87.5234   16.3971 F       1  UNL1       -0.1658
     24 F          64.6129   87.6179   14.4607 F       1  UNL1       -0.1658
     25 F          63.0065   89.4955   16.1619 F       1  UNL1       -0.1658
@<TRIPOS>BOND
     1     1     2    2
     2     2     3    2
     3     2    14    1
     4    14    16    1
     5    16    17   ar
     6    17    18   ar
     7    18    19   ar
     8    19    20   ar
     9    20    22    1
    10    22    23    1
    11    22    24    1
    12    22    25    1
    13    20    21   ar
    14     2     4    1
    15     4     5   ar
    16     5     6   ar
    17     6     7   ar
    18     7     8   ar
    19     8     9   ar
    20     9    10    1
    21    10    11    1
    22    10    12    1
    23    10    13    1
    24    21    16   ar
    25     9     4   ar
    26    14    15    1
@<TRIPOS>MOLECULE
*****
 25 26 0 0 0
SMALL
GASTEIGER

@<TRIPOS>ATOM
      1 O          63.1314   85.7516    8.5698 O.2     1  UNL1       -0.1499
      2 S          62.2318   85.5510    9.7533 S.O2    1  UNL1        0.0736
      3 O          61.6073   85.2963   10.7638 O.2     1  UNL1       -0.1499
      4 C          61.2334   86.4970    9.1547 C.ar    1  UNL1        0.1290
      5 C          60.2782   86.0134    8.1041 C.ar    1  UNL1        0.0201
      6 C          59.2798   86.9593    7.5056 C.ar    1  UNL1        0.0014
      7 C          59.2365   88.3888    7.9577 C.ar    1  UNL1        0.0000
      8 C          60.1916   88.8725    9.0082 C.ar    1  UNL1        0.0052
      9 C          61.1901   87.9266    9.6068 C.ar    1  UNL1        0.0902
     10 C          62.1452   88.4102   10.6574 C.3     1  UNL1        0.4198
     11 F          63.1004   88.8939   11.7080 F       1  UNL1       -0.1658
     12 F          63.0826   88.8847    9.5868 F       1  UNL1       -0.1658
     13 F          61.4860   88.0765   11.6218 F       1  UNL1       -0.1658
     14 N          63.2302   84.6050   10.3518 N.pl3   1  UNL1       -0.2135
     15 H          64.0177   84.3261    9.8309 H       1  UNL1        0.1738
     16 C          63.0288   84.0840   11.7440 C.ar    1  UNL1        0.0839
     17 C          62.5150   82.6909   11.9564 C.ar    1  UNL1        0.1146
     18 N          62.3137   82.1700   13.3485 N.ar    1  UNL1       -0.2410
     19 C          62.6261   83.0422   14.5282 C.ar    1  UNL1        0.1028
     20 C          63.1399   84.4353   14.3158 C.ar    1  UNL1        0.0918
     21 C          63.3412   84.9562   12.9237 C.ar    1  UNL1        0.0229
     22 C          63.4523   85.3075   15.4955 C.3     1  UNL1        0.4201
     23 F          63.7647   86.1797   16.6752 F       1  UNL1       -0.1658
     24 F          62.3188   84.6852   16.2557 F       1  UNL1       -0.1658
     25 F          64.5857   85.9298   14.7352 F       1  UNL1       -0.1658
@<TRIPOS>BOND
     1     1     2    2
     2     2     3    2
     3     2    14    1
     4    14    16    1
     5    16    17   ar
     6    17    18   ar
     7    18    19   ar
     8    19    20   ar
     9    20    22    1
    10    22    23    1
    11    22    24    1
    12    22    25    1
    13    20    21   ar
    14     2     4    1
    15     4     5   ar
    16     5     6   ar
    17     6     7   ar
    18     7     8   ar
    19     8     9   ar
    20     9    10    1
    21    10    11    1
    22    10    12    1
    23    10    13    1
    24    21    16   ar
    25     9     4   ar
    26    14    15    1
@<TRIPOS>MOLECULE
*****
 25 26 0 0 0
SMALL
GASTEIGER

@<TRIPOS>ATOM
      1 O          60.9219   89.2999   11.4629 O.2     1  UNL1       -0.1499
      2 S          62.0299   89.1515   10.4628 S.O2    1  UNL1        0.0736
      3 O          63.0129   89.1030    9.7505 O.2     1  UNL1       -0.1499
      4 C          61.0957   88.4336    9.5343 C.ar    1  UNL1        0.1290
      5 C          60.1624   89.2150    8.6577 C.ar    1  UNL1        0.0201
      6 C          59.2282   88.4972    7.7292 C.ar    1  UNL1        0.0014
      7 C          59.2273   86.9981    7.6773 C.ar    1  UNL1        0.0000
      8 C          60.1606   86.2168    8.5540 C.ar    1  UNL1        0.0052
      9 C          61.0948   86.9346    9.4824 C.ar    1  UNL1        0.0902
     10 C          62.0281   86.1532   10.3591 C.3     1  UNL1        0.4198
     11 F          62.9614   85.3719   11.2357 F       1  UNL1       -0.1658
     12 F          63.0014   86.0414    9.2232 F       1  UNL1       -0.1658
     13 F          61.3378   86.1660   11.3588 F       1  UNL1       -0.1658
     14 N          62.9640   89.8692   11.3913 N.pl3   1  UNL1       -0.2135
     15 H          63.4167   90.6919   11.0952 H       1  UNL1        0.1738
     16 C          63.2086   89.3337   12.7709 C.ar    1  UNL1        0.0839
     17 C          62.9717   90.2069   13.9673 C.ar    1  UNL1        0.1146
     18 N          63.2163   89.6713   15.3469 N.ar    1  UNL1       -0.2410
     19 C          63.6979   88.2625   15.5301 C.ar    1  UNL1        0.1028
     20 C          63.9348   87.3893   14.3337 C.ar    1  UNL1        0.0918
     21 C          63.6902   87.9249   12.9541 C.ar    1  UNL1        0.0229
     22 C          64.4163   85.9806   14.5169 C.3     1  UNL1        0.4201
     23 F          64.8978   84.5718   14.7001 F       1  UNL1       -0.1658
     24 F          65.7099   86.4953   15.0750 F       1  UNL1       -0.1658
     25 F          63.1226   85.4658   13.9588 F       1  UNL1       -0.1658
@<TRIPOS>BOND
     1     1     2    2
     2     2     3    2
     3     2    14    1
     4    14    16    1
     5    16    17   ar
     6    17    18   ar
     7    18    19   ar
     8    19    20   ar
     9    20    22    1
    10    22    23    1
    11    22    24    1
    12    22    25    1
    13    20    21   ar
    14     2     4    1
    15     4     5   ar
    16     5     6   ar
    17     6     7   ar
    18     7     8   ar
    19     8     9   ar
    20     9    10    1
    21    10    11    1
    22    10    12    1
    23    10    13    1
    24    21    16   ar
    25     9     4   ar
    26    14    15    1
