@<TRIPOS>MOLECULE
*****
 27 29 0 0 0
SMALL
GASTEIGER

@<TRIPOS>ATOM
      1 C          65.6577   92.0997   14.5089 C.ar    1  UNL1        0.0503
      2 C          65.1274   90.8795   15.2016 C.ar    1  UNL1        0.0147
      3 C          64.2317   89.9283   14.4645 C.ar    1  UNL1        0.0013
      4 C          63.8664   90.1974   13.0348 C.ar    1  UNL1       -0.0001
      5 C          62.9708   89.2463   12.2978 C.ar    1  UNL1       -0.0017
      6 C          62.6055   89.5154   10.8681 C.ar    1  UNL1        0.0070
      7 C          63.1359   90.7357   10.1753 C.ar    1  UNL1       -0.0017
      8 C          64.0315   91.6868   10.9124 C.ar    1  UNL1       -0.0002
      9 C          64.3968   91.4176   12.3422 C.ar    1  UNL1        0.0012
     10 C          65.2924   92.3687   13.0792 C.ar    1  UNL1        0.0147
     11 C          68.9229   94.0122   15.7049 C.3     1  UNL1        0.0949
     12 C          68.0273   93.0611   14.9679 C.2     1  UNL1        0.2266
     13 O          68.6056   92.1203   13.9527 O.2     1  UNL1       -0.2748
     14 N          66.5533   93.0508   15.2460 N.am    1  UNL1       -0.2839
     15 H          66.1737   93.6682   15.9122 H       1  UNL1        0.1549
     16 C          61.7099   88.5643   10.1310 C.3     1  UNL1        0.1410
     17 O          62.8860   88.0666    9.3441 O.3     1  UNL1       -0.3771
     18 H          63.6855   88.5392    9.6239 H       1  UNL1        0.2112
     19 C          60.5338   89.0620   10.9179 C.ar    1  UNL1        0.0825
     20 C          59.9549   90.4445   10.8588 C.ar    1  UNL1        0.1157
     21 N          58.7935   90.5015   11.8064 N.ar    1  UNL1       -0.2228
     22 C          58.6546   89.1543   12.4510 C.ar    1  UNL1        0.1749
     23 N          59.7303   88.2646   11.9018 N.ar    1  UNL1       -0.3361
     24 H          59.8821   87.3227   12.1446 H       1  UNL1        0.1673
     25 C          60.8143   87.6132    9.3939 C.3     1  UNL1        0.0340
     26 C          59.8172   88.1370    8.4032 C.3     1  UNL1        0.0031
     27 C          60.9157   86.1383    9.6477 C.3     1  UNL1        0.0031
@<TRIPOS>BOND
     1    11    12    1
     2    12    13    2
     3    12    14   am
     4    14     1    1
     5     1     2   ar
     6     2     3   ar
     7     3     4   ar
     8     4     5   ar
     9     5     6   ar
    10     6    16    1
    11    16    17    1
    12    16    19    1
    13    19    20   ar
    14    20    21   ar
    15    21    22   ar
    16    22    23   ar
    17    16    25    1
    18    25    26    1
    19    25    27    1
    20     6     7   ar
    21     7     8   ar
    22     8     9   ar
    23     9    10   ar
    24    10     1   ar
    25     9     4   ar
    26    23    19   ar
    27    14    15    1
    28    17    18    1
    29    23    24    1
@<TRIPOS>MOLECULE
*****
 27 29 0 0 0
SMALL
GASTEIGER

@<TRIPOS>ATOM
      1 C          65.5053   92.3408   13.2551 C.ar    1  UNL1        0.0503
      2 C          65.6195   92.7410   11.8140 C.ar    1  UNL1        0.0147
      3 C          64.7032   92.1353   10.7925 C.ar    1  UNL1        0.0013
      4 C          63.6727   91.1294   11.2121 C.ar    1  UNL1       -0.0001
      5 C          62.7563   90.5237   10.1906 C.ar    1  UNL1       -0.0017
      6 C          61.7258   89.5178   10.6102 C.ar    1  UNL1        0.0070
      7 C          61.6116   89.1175   12.0513 C.ar    1  UNL1       -0.0017
      8 C          62.5279   89.7232   13.0728 C.ar    1  UNL1       -0.0002
      9 C          63.5584   90.7292   12.6532 C.ar    1  UNL1        0.0012
     10 C          64.4748   91.3349   13.6747 C.ar    1  UNL1        0.0147
     11 C          68.8035   93.2339   15.2736 C.3     1  UNL1        0.0949
     12 C          67.8872   92.6282   14.2521 C.2     1  UNL1        0.2266
     13 O          68.4365   91.7040   13.2060 O.2     1  UNL1       -0.2748
     14 N          66.4216   92.9466   14.2766 N.am    1  UNL1       -0.2839
     15 H          66.0611   93.5531   14.9632 H       1  UNL1        0.1549
     16 C          60.8095   88.9120    9.5887 C.3     1  UNL1        0.1410
     17 O          60.2303   90.2663    9.3051 O.3     1  UNL1       -0.3771
     18 H          60.6641   90.9276    9.8668 H       1  UNL1        0.2112
     19 C          61.3887   87.5577    9.8722 C.ar    1  UNL1        0.0825
     20 C          62.3605   86.8151    9.0039 C.ar    1  UNL1        0.1157
     21 N          62.6702   85.5067    9.6688 N.ar    1  UNL1       -0.2228
     22 C          61.8897   85.4407   10.9481 C.ar    1  UNL1        0.1749
     23 N          61.0977   86.7084   11.0737 N.ar    1  UNL1       -0.3361
     24 H          60.4930   86.9419   11.8147 H       1  UNL1        0.1673
     25 C          59.8932   88.3063    8.5672 C.3     1  UNL1        0.0340
     26 C          59.7148   88.9686    7.2332 C.3     1  UNL1        0.0031
     27 C          59.1553   87.0382    8.8797 C.3     1  UNL1        0.0031
@<TRIPOS>BOND
     1    11    12    1
     2    12    13    2
     3    12    14   am
     4    14     1    1
     5     1     2   ar
     6     2     3   ar
     7     3     4   ar
     8     4     5   ar
     9     5     6   ar
    10     6    16    1
    11    16    17    1
    12    16    19    1
    13    19    20   ar
    14    20    21   ar
    15    21    22   ar
    16    22    23   ar
    17    16    25    1
    18    25    26    1
    19    25    27    1
    20     6     7   ar
    21     7     8   ar
    22     8     9   ar
    23     9    10   ar
    24    10     1   ar
    25     9     4   ar
    26    23    19   ar
    27    14    15    1
    28    17    18    1
    29    23    24    1
@<TRIPOS>MOLECULE
*****
 27 29 0 0 0
SMALL
GASTEIGER

@<TRIPOS>ATOM
      1 C          61.5289   88.3729   10.2906 C.ar    1  UNL1        0.0503
      2 C          61.6793   89.7365    9.6840 C.ar    1  UNL1        0.0147
      3 C          62.5552   90.7591   10.3452 C.ar    1  UNL1        0.0013
      4 C          63.2807   90.4180   11.6130 C.ar    1  UNL1       -0.0001
      5 C          64.1566   91.4406   12.2742 C.ar    1  UNL1       -0.0017
      6 C          64.8821   91.0996   13.5419 C.ar    1  UNL1        0.0070
      7 C          64.7318   89.7360   14.1486 C.ar    1  UNL1       -0.0017
      8 C          63.8559   88.7134   13.4874 C.ar    1  UNL1       -0.0002
      9 C          63.1303   89.0545   12.2195 C.ar    1  UNL1        0.0012
     10 C          62.2544   88.0319   11.5584 C.ar    1  UNL1        0.0147
     11 C          58.9486   86.7076    7.7769 C.3     1  UNL1        0.0949
     12 C          59.8245   87.7301    8.4381 C.2     1  UNL1        0.2266
     13 O          59.8718   89.1326    7.9079 O.2     1  UNL1       -0.2748
     14 N          60.6530   87.3503    9.6294 N.am    1  UNL1       -0.2839
     15 H          60.6220   86.4299    9.9773 H       1  UNL1        0.1549
     16 C          65.7580   92.1222   14.2031 C.3     1  UNL1        0.1410
     17 O          64.9282   92.0273   15.4491 O.3     1  UNL1       -0.3771
     18 H          64.2154   91.3834   15.3146 H       1  UNL1        0.2112
     19 C          66.5878   92.2171   12.9571 C.ar    1  UNL1        0.0825
     20 C          67.9696   91.6633   12.7739 C.ar    1  UNL1        0.1157
     21 N          68.4172   91.9864   11.3791 N.ar    1  UNL1       -0.2228
     22 C          67.3120   92.7399   10.7005 C.ar    1  UNL1        0.1749
     23 N          66.1813   92.8824   11.6758 N.ar    1  UNL1       -0.3361
     24 H          65.3230   93.3335   11.5049 H       1  UNL1        0.1673
     25 C          66.6339   93.1448   14.8643 C.3     1  UNL1        0.0340
     26 C          67.2725   92.8424   16.1874 C.3     1  UNL1        0.0031
     27 C          66.8712   94.4697   14.2023 C.3     1  UNL1        0.0031
@<TRIPOS>BOND
     1    11    12    1
     2    12    13    2
     3    12    14   am
     4    14     1    1
     5     1     2   ar
     6     2     3   ar
     7     3     4   ar
     8     4     5   ar
     9     5     6   ar
    10     6    16    1
    11    16    17    1
    12    16    19    1
    13    19    20   ar
    14    20    21   ar
    15    21    22   ar
    16    22    23   ar
    17    16    25    1
    18    25    26    1
    19    25    27    1
    20     6     7   ar
    21     7     8   ar
    22     8     9   ar
    23     9    10   ar
    24    10     1   ar
    25     9     4   ar
    26    23    19   ar
    27    14    15    1
    28    17    18    1
    29    23    24    1
@<TRIPOS>MOLECULE
*****
 27 29 0 0 0
SMALL
GASTEIGER

@<TRIPOS>ATOM
      1 C          61.5643   88.9084   10.2239 C.ar    1  UNL1        0.0503
      2 C          61.8842   90.2656    9.6710 C.ar    1  UNL1        0.0147
      3 C          62.8376   91.1663   10.3988 C.ar    1  UNL1        0.0013
      4 C          63.4713   90.7098   11.6794 C.ar    1  UNL1       -0.0001
      5 C          64.4247   91.6105   12.4072 C.ar    1  UNL1       -0.0017
      6 C          65.0584   91.1540   13.6878 C.ar    1  UNL1        0.0070
      7 C          64.7386   89.7967   14.2408 C.ar    1  UNL1       -0.0017
      8 C          63.7851   88.8961   13.5130 C.ar    1  UNL1       -0.0002
      9 C          63.1515   89.3526   12.2323 C.ar    1  UNL1        0.0012
     10 C          62.1980   88.4519   11.5045 C.ar    1  UNL1        0.0147
     11 C          60.1733   85.9049    8.0345 C.3     1  UNL1        0.0949
     12 C          61.1267   86.8056    8.7623 C.2     1  UNL1        0.2266
     13 O          62.5962   86.5040    8.7562 O.2     1  UNL1       -0.2748
     14 N          60.6109   88.0078    9.4961 N.am    1  UNL1       -0.2839
     15 H          59.6465   88.2057    9.5001 H       1  UNL1        0.1549
     16 C          66.0119   92.0547   14.4156 C.3     1  UNL1        0.1410
     17 O          65.1104   92.0403   15.6144 O.3     1  UNL1       -0.3771
     18 H          64.3348   91.4881   15.4291 H       1  UNL1        0.2112
     19 C          66.9133   92.0691   13.2168 C.ar    1  UNL1        0.0825
     20 C          66.6182   92.7232   11.8996 C.ar    1  UNL1        0.1157
     21 N          67.7906   92.4903   10.9934 N.ar    1  UNL1       -0.2228
     22 C          68.8103   91.6923   11.7506 C.ar    1  UNL1        0.1749
     23 N          68.2681   91.4320   13.1248 N.ar    1  UNL1       -0.3361
     24 H          68.7217   90.9309   13.8406 H       1  UNL1        0.1673
     25 C          66.9653   92.9554   15.1434 C.3     1  UNL1        0.0340
     26 C          67.2014   94.3524   14.6510 C.3     1  UNL1        0.0031
     27 C          67.6828   92.4590   16.3636 C.3     1  UNL1        0.0031
@<TRIPOS>BOND
     1    11    12    1
     2    12    13    2
     3    12    14   am
     4    14     1    1
     5     1     2   ar
     6     2     3   ar
     7     3     4   ar
     8     4     5   ar
     9     5     6   ar
    10     6    16    1
    11    16    17    1
    12    16    19    1
    13    19    20   ar
    14    20    21   ar
    15    21    22   ar
    16    22    23   ar
    17    16    25    1
    18    25    26    1
    19    25    27    1
    20     6     7   ar
    21     7     8   ar
    22     8     9   ar
    23     9    10   ar
    24    10     1   ar
    25     9     4   ar
    26    23    19   ar
    27    14    15    1
    28    17    18    1
    29    23    24    1
@<TRIPOS>MOLECULE
*****
 27 29 0 0 0
SMALL
GASTEIGER

@<TRIPOS>ATOM
      1 C          64.0989   89.9353   13.2623 C.ar    1  UNL1        0.0503
      2 C          64.6252   89.3933   14.5581 C.ar    1  UNL1        0.0147
      3 C          64.4469   87.9417   14.8916 C.ar    1  UNL1        0.0013
      4 C          63.7422   87.0322   13.9293 C.ar    1  UNL1       -0.0001
      5 C          63.5639   85.5806   14.2627 C.ar    1  UNL1       -0.0017
      6 C          62.8592   84.6711   13.3004 C.ar    1  UNL1        0.0070
      7 C          62.3328   85.2131   12.0045 C.ar    1  UNL1       -0.0017
      8 C          62.5111   86.6646   11.6711 C.ar    1  UNL1       -0.0002
      9 C          63.2159   87.5742   12.6335 C.ar    1  UNL1        0.0012
     10 C          63.3942   89.0257   12.3000 C.ar    1  UNL1        0.0147
     11 C          65.7943   93.4903   12.7754 C.3     1  UNL1        0.0949
     12 C          65.6160   92.0387   13.1089 C.2     1  UNL1        0.2266
     13 O          66.7766   91.2391   13.6224 O.2     1  UNL1       -0.2748
     14 N          64.2772   91.3868   12.9288 N.am    1  UNL1       -0.2839
     15 H          63.5155   91.9116   12.5918 H       1  UNL1        0.1549
     16 C          62.6809   83.2195   13.6339 C.3     1  UNL1        0.1410
     17 O          62.0514   83.5974   14.9419 O.3     1  UNL1       -0.3771
     18 H          62.0244   84.5638   15.0206 H       1  UNL1        0.2112
     19 C          63.3104   82.8417   12.3259 C.ar    1  UNL1        0.0825
     20 C          64.6458   83.3048   11.8238 C.ar    1  UNL1        0.1157
     21 N          64.8758   82.6838   10.4779 N.ar    1  UNL1       -0.2228
     22 C          63.6825   81.8368   10.1483 C.ar    1  UNL1        0.1749
     23 N          62.7151   81.9344   11.2904 N.ar    1  UNL1       -0.3361
     24 H          61.8425   81.4823   11.3500 H       1  UNL1        0.1673
     25 C          62.5026   81.7680   13.9674 C.3     1  UNL1        0.0340
     26 C          61.1263   81.2110   14.1806 C.3     1  UNL1        0.0031
     27 C          63.7007   80.8734   14.0876 C.3     1  UNL1        0.0031
@<TRIPOS>BOND
     1    11    12    1
     2    12    13    2
     3    12    14   am
     4    14     1    1
     5     1     2   ar
     6     2     3   ar
     7     3     4   ar
     8     4     5   ar
     9     5     6   ar
    10     6    16    1
    11    16    17    1
    12    16    19    1
    13    19    20   ar
    14    20    21   ar
    15    21    22   ar
    16    22    23   ar
    17    16    25    1
    18    25    26    1
    19    25    27    1
    20     6     7   ar
    21     7     8   ar
    22     8     9   ar
    23     9    10   ar
    24    10     1   ar
    25     9     4   ar
    26    23    19   ar
    27    14    15    1
    28    17    18    1
    29    23    24    1
@<TRIPOS>MOLECULE
*****
 27 29 0 0 0
SMALL
GASTEIGER

@<TRIPOS>ATOM
      1 C          64.0498   89.9439   13.1841 C.ar    1  UNL1        0.0503
      2 C          63.2653   89.4134   12.0208 C.ar    1  UNL1        0.0147
      3 C          62.9039   87.9588   11.9608 C.ar    1  UNL1        0.0013
      4 C          63.3270   87.0347   13.0640 C.ar    1  UNL1       -0.0001
      5 C          62.9656   85.5802   13.0039 C.ar    1  UNL1       -0.0017
      6 C          63.3887   84.6561   14.1071 C.ar    1  UNL1        0.0070
      7 C          64.1732   85.1866   15.2704 C.ar    1  UNL1       -0.0017
      8 C          64.5346   86.6412   15.3304 C.ar    1  UNL1       -0.0002
      9 C          64.1115   87.5652   14.2272 C.ar    1  UNL1        0.0012
     10 C          64.4729   89.0198   14.2872 C.ar    1  UNL1        0.0147
     11 C          66.0758   93.2775   13.9133 C.3     1  UNL1        0.0949
     12 C          65.7144   91.8230   13.8533 C.2     1  UNL1        0.2266
     13 O          66.6565   90.7928   14.4025 O.2     1  UNL1       -0.2748
     14 N          64.4111   91.3985   13.2441 N.am    1  UNL1       -0.2839
     15 H          63.7929   92.0746   12.8837 H       1  UNL1        0.1549
     16 C          63.0273   83.2015   14.0471 C.3     1  UNL1        0.1410
     17 O          62.5926   83.2503   15.4819 O.3     1  UNL1       -0.3771
     18 H          62.7192   84.1476   15.8277 H       1  UNL1        0.2112
     19 C          63.4621   83.1527   12.6123 C.ar    1  UNL1        0.0825
     20 C          62.5563   83.0948   11.4181 C.ar    1  UNL1        0.1157
     21 N          63.4133   83.0596   10.1876 N.ar    1  UNL1       -0.2228
     22 C          64.8488   83.0957   10.6213 C.ar    1  UNL1        0.1749
     23 N          64.8789   83.1533   12.1199 N.ar    1  UNL1       -0.3361
     24 H          65.6867   83.1858   12.6816 H       1  UNL1        0.1673
     25 C          62.6660   81.7469   13.9870 C.3     1  UNL1        0.0340
     26 C          63.7295   80.7197   13.7351 C.3     1  UNL1        0.0031
     27 C          61.2409   81.3196   14.1789 C.3     1  UNL1        0.0031
@<TRIPOS>BOND
     1    11    12    1
     2    12    13    2
     3    12    14   am
     4    14     1    1
     5     1     2   ar
     6     2     3   ar
     7     3     4   ar
     8     4     5   ar
     9     5     6   ar
    10     6    16    1
    11    16    17    1
    12    16    19    1
    13    19    20   ar
    14    20    21   ar
    15    21    22   ar
    16    22    23   ar
    17    16    25    1
    18    25    26    1
    19    25    27    1
    20     6     7   ar
    21     7     8   ar
    22     8     9   ar
    23     9    10   ar
    24    10     1   ar
    25     9     4   ar
    26    23    19   ar
    27    14    15    1
    28    17    18    1
    29    23    24    1
@<TRIPOS>MOLECULE
*****
 27 29 0 0 0
SMALL
GASTEIGER

@<TRIPOS>ATOM
      1 C          63.0294   85.9250   13.2081 C.ar    1  UNL1        0.0503
      2 C          63.9204   85.8779   14.4138 C.ar    1  UNL1        0.0147
      3 C          64.6477   87.1124   14.8576 C.ar    1  UNL1        0.0013
      4 C          64.4840   88.3941   14.0957 C.ar    1  UNL1       -0.0001
      5 C          65.2112   89.6286   14.5395 C.ar    1  UNL1       -0.0017
      6 C          65.0475   90.9103   13.7776 C.ar    1  UNL1        0.0070
      7 C          64.1565   90.9574   12.5718 C.ar    1  UNL1       -0.0017
      8 C          63.4292   89.7228   12.1280 C.ar    1  UNL1       -0.0002
      9 C          63.5930   88.4412   12.8900 C.ar    1  UNL1        0.0012
     10 C          62.8657   87.2066   12.4461 C.ar    1  UNL1        0.0147
     11 C          62.3438   82.2130   11.9830 C.3     1  UNL1        0.0949
     12 C          63.0710   83.4475   12.4268 C.2     1  UNL1        0.2266
     13 O          64.5673   83.4391   12.5333 O.2     1  UNL1       -0.2748
     14 N          62.3022   84.6904   12.7642 N.am    1  UNL1       -0.2839
     15 H          61.3201   84.6960   12.6944 H       1  UNL1        0.1549
     16 C          65.7748   92.1448   14.2214 C.3     1  UNL1        0.1410
     17 O          65.0074   92.1336   15.5102 O.3     1  UNL1       -0.3771
     18 H          64.3986   91.3784   15.5174 H       1  UNL1        0.2112
     19 C          66.5422   92.1560   12.9326 C.ar    1  UNL1        0.0825
     20 C          67.9663   91.7217   12.7507 C.ar    1  UNL1        0.1157
     21 N          68.3245   91.9008   11.3052 N.ar    1  UNL1       -0.2228
     22 C          67.1216   92.4459   10.5937 C.ar    1  UNL1        0.1749
     23 N          66.0201   92.6036   11.5996 N.ar    1  UNL1       -0.3361
     24 H          65.1137   92.9415   11.4169 H       1  UNL1        0.1673
     25 C          66.5020   93.3793   14.6652 C.3     1  UNL1        0.0340
     26 C          66.4791   94.6115   13.8102 C.3     1  UNL1        0.0031
     27 C          67.2523   93.3817   15.9642 C.3     1  UNL1        0.0031
@<TRIPOS>BOND
     1    11    12    1
     2    12    13    2
     3    12    14   am
     4    14     1    1
     5     1     2   ar
     6     2     3   ar
     7     3     4   ar
     8     4     5   ar
     9     5     6   ar
    10     6    16    1
    11    16    17    1
    12    16    19    1
    13    19    20   ar
    14    20    21   ar
    15    21    22   ar
    16    22    23   ar
    17    16    25    1
    18    25    26    1
    19    25    27    1
    20     6     7   ar
    21     7     8   ar
    22     8     9   ar
    23     9    10   ar
    24    10     1   ar
    25     9     4   ar
    26    23    19   ar
    27    14    15    1
    28    17    18    1
    29    23    24    1
