@<TRIPOS>MOLECULE
*****
 7 7 0 0 0
SMALL
GASTEIGER

@<TRIPOS>ATOM
      1 C          68.6434   92.4911    8.9795 C.3     1  UNL1        0.0716
      2 C          67.9422   93.7291    9.4547 C.ar    1  UNL1        0.1176
      3 N          67.1140   93.8505   10.6994 N.ar    1  UNL1       -0.2295
      4 C          66.6060   95.2594   10.7826 C.ar    1  UNL1        0.1186
      5 C          67.1203   96.0088    9.5894 C.ar    1  UNL1        0.0942
      6 N          67.9461   95.0630    8.7687 N.ar    1  UNL1       -0.3396
      7 H          68.4094   95.2797    7.9275 H       1  UNL1        0.1671
@<TRIPOS>BOND
     1     1     2    1
     2     2     3   ar
     3     3     4   ar
     4     4     5   ar
     5     5     6   ar
     6     6     2   ar
     7     6     7    1
@<TRIPOS>MOLECULE
*****
 7 7 0 0 0
SMALL
GASTEIGER

@<TRIPOS>ATOM
      1 C          61.0721   80.9988   14.0937 C.3     1  UNL1        0.0716
      2 C          62.2180   81.9654   14.1451 C.ar    1  UNL1        0.1176
      3 N          63.0378   82.4240   12.9756 N.ar    1  UNL1       -0.2295
      4 C          64.0717   83.3851   13.4827 C.ar    1  UNL1        0.1186
      5 C          63.8909   83.5207   14.9656 C.ar    1  UNL1        0.0942
      6 N          62.7452   82.6432   15.3749 N.ar    1  UNL1       -0.3396
      7 H          62.3999   82.5318   16.2901 H       1  UNL1        0.1671
@<TRIPOS>BOND
     1     1     2    1
     2     2     3   ar
     3     3     4   ar
     4     4     5   ar
     5     5     6   ar
     6     6     2   ar
     7     6     7    1
@<TRIPOS>MOLECULE
*****
 7 7 0 0 0
SMALL
GASTEIGER

@<TRIPOS>ATOM
      1 C          68.6637   92.2866    8.9515 C.3     1  UNL1        0.0716
      2 C          67.6898   93.1255    9.7248 C.ar    1  UNL1        0.1176
      3 N          67.7075   94.6213    9.8347 N.ar    1  UNL1       -0.2295
      4 C          66.5559   95.0361   10.7018 C.ar    1  UNL1        0.1186
      5 C          65.8265   93.7965   11.1278 C.ar    1  UNL1        0.0942
      6 N          66.5274   92.6157   10.5240 N.ar    1  UNL1       -0.3396
      7 H          66.2696   91.6719   10.6332 H       1  UNL1        0.1671
@<TRIPOS>BOND
     1     1     2    1
     2     2     3   ar
     3     3     4   ar
     4     4     5   ar
     5     5     6   ar
     6     6     2   ar
     7     6     7    1
@<TRIPOS>MOLECULE
*****
 7 7 0 0 0
SMALL
GASTEIGER

@<TRIPOS>ATOM
      1 C          64.4140   83.6997   14.5905 C.3     1  UNL1        0.0716
      2 C          63.5259   82.5620   14.1818 C.ar    1  UNL1        0.1176
      3 N          63.7704   81.6181   13.0420 N.ar    1  UNL1       -0.2295
      4 C          62.6329   80.6413   12.9969 C.ar    1  UNL1        0.1186
      5 C          61.6855   80.9814   14.1090 C.ar    1  UNL1        0.0942
      6 N          62.2374   82.1685   14.8413 N.ar    1  UNL1       -0.3396
      7 H          61.8261   82.6116   15.6183 H       1  UNL1        0.1671
@<TRIPOS>BOND
     1     1     2    1
     2     2     3   ar
     3     3     4   ar
     4     4     5   ar
     5     5     6   ar
     6     6     2   ar
     7     6     7    1
@<TRIPOS>MOLECULE
*****
 7 7 0 0 0
SMALL
GASTEIGER

@<TRIPOS>ATOM
      1 C          68.3114   92.4031   16.0180 C.3     1  UNL1        0.0716
      2 C          67.6422   92.7075   14.7105 C.ar    1  UNL1        0.1176
      3 N          67.8369   91.9592   13.4251 N.ar    1  UNL1       -0.2295
      4 C          66.9759   92.6029   12.3790 C.ar    1  UNL1        0.1186
      5 C          66.2490   93.7490   13.0179 C.ar    1  UNL1        0.0942
      6 N          66.6608   93.8136   14.4588 N.ar    1  UNL1       -0.3396
      7 H          66.3428   94.4673   15.1227 H       1  UNL1        0.1671
@<TRIPOS>BOND
     1     1     2    1
     2     2     3   ar
     3     3     4   ar
     4     4     5   ar
     5     5     6   ar
     6     6     2   ar
     7     6     7    1
@<TRIPOS>MOLECULE
*****
 7 7 0 0 0
SMALL
GASTEIGER

@<TRIPOS>ATOM
      1 C          67.5145   95.8940    8.5902 C.3     1  UNL1        0.0716
      2 C          67.3783   94.5653    9.2729 C.ar    1  UNL1        0.1176
      3 N          68.4805   93.5736    9.5000 N.ar    1  UNL1       -0.2295
      4 C          67.8993   92.3904   10.2159 C.ar    1  UNL1        0.1186
      5 C          66.4379   92.6510   10.4312 C.ar    1  UNL1        0.0942
      6 N          66.1159   93.9951    9.8485 N.ar    1  UNL1       -0.3396
      7 H          65.2313   94.4272    9.8444 H       1  UNL1        0.1671
@<TRIPOS>BOND
     1     1     2    1
     2     2     3   ar
     3     3     4   ar
     4     4     5   ar
     5     5     6   ar
     6     6     2   ar
     7     6     7    1
@<TRIPOS>MOLECULE
*****
 7 7 0 0 0
SMALL
GASTEIGER

@<TRIPOS>ATOM
      1 C          65.7796   92.7471   12.3014 C.3     1  UNL1        0.0716
      2 C          66.7309   92.8595   13.4557 C.ar    1  UNL1        0.1176
      3 N          68.0403   92.1407   13.5923 N.ar    1  UNL1       -0.2295
      4 C          68.6585   92.5474   14.8971 C.ar    1  UNL1        0.1186
      5 C          67.7311   93.5176   15.5669 C.ar    1  UNL1        0.0942
      6 N          66.5398   93.7104   14.6761 N.ar    1  UNL1       -0.3396
      7 H          65.7679   94.2932   14.8601 H       1  UNL1        0.1671
@<TRIPOS>BOND
     1     1     2    1
     2     2     3   ar
     3     3     4   ar
     4     4     5   ar
     5     5     6   ar
     6     6     2   ar
     7     6     7    1
@<TRIPOS>MOLECULE
*****
 7 7 0 0 0
SMALL
GASTEIGER

@<TRIPOS>ATOM
      1 C          69.0886   94.1658   16.0614 C.3     1  UNL1        0.0716
      2 C          67.9056   93.3825   15.5746 C.ar    1  UNL1        0.1176
      3 N          67.7425   92.7909   14.2059 N.ar    1  UNL1       -0.2295
      4 C          66.4141   92.0961   14.1564 C.ar    1  UNL1        0.1186
      5 C          65.7561   92.2582   15.4946 C.ar    1  UNL1        0.0942
      6 N          66.6779   93.0533   16.3711 N.ar    1  UNL1       -0.3396
      7 H          66.5071   93.3133   17.3051 H       1  UNL1        0.1671
@<TRIPOS>BOND
     1     1     2    1
     2     2     3   ar
     3     3     4   ar
     4     4     5   ar
     5     5     6   ar
     6     6     2   ar
     7     6     7    1
@<TRIPOS>MOLECULE
*****
 7 7 0 0 0
SMALL
GASTEIGER

@<TRIPOS>ATOM
      1 C          64.2532   83.0005   10.2686 C.3     1  UNL1        0.0716
      2 C          63.8971   83.0014   11.7257 C.ar    1  UNL1        0.1176
      3 N          62.5987   82.5373   12.3163 N.ar    1  UNL1       -0.2295
      4 C          62.6760   82.7157   13.8037 C.ar    1  UNL1        0.1186
      5 C          64.0221   83.2900   14.1323 C.ar    1  UNL1        0.0942
      6 N          64.7767   83.4666   12.8480 N.ar    1  UNL1       -0.3396
      7 H          65.6892   83.8250   12.7577 H       1  UNL1        0.1671
@<TRIPOS>BOND
     1     1     2    1
     2     2     3   ar
     3     3     4   ar
     4     4     5   ar
     5     5     6   ar
     6     6     2   ar
     7     6     7    1
