@<TRIPOS>MOLECULE
*****
 28 31 0 0 0
SMALL
GASTEIGER

@<TRIPOS>ATOM
      1 C          62.5197   90.8264   10.7359 C.ar    1  UNL1        0.0504
      2 C          62.4596   90.4102   12.1757 C.ar    1  UNL1        0.0160
      3 C          63.5565   90.8089   13.1180 C.ar    1  UNL1        0.0200
      4 C          64.7134   91.6238   12.6205 C.ar    1  UNL1        0.1104
      5 C          64.7735   92.0400   11.1807 C.ar    1  UNL1        0.0200
      6 C          63.6767   91.6413   10.2384 C.ar    1  UNL1        0.0160
      7 O          62.3318   87.9941    9.7651 O.2     1  UNL1       -0.2748
      8 C          61.3289   89.0116    9.3081 C.2     1  UNL1        0.2260
      9 N          61.4229   90.4278    9.7935 N.am    1  UNL1       -0.2839
     10 H          60.7646   91.0956    9.4936 H       1  UNL1        0.1549
     11 C          60.2320   88.6130    8.3657 C.3     1  UNL1        0.0812
     12 C          59.2735   87.5807    7.8503 C.3     1  UNL1        0.0143
     13 C          59.2908   88.9547    7.2489 C.3     1  UNL1        0.0330
     14 C          58.7574   89.9453    6.2569 C.ar    1  UNL1       -0.0029
     15 C          59.7046   90.7821    5.4491 C.ar    1  UNL1       -0.0011
     16 C          59.1712   91.7727    4.4571 C.ar    1  UNL1        0.0204
     17 C          57.6904   91.9266    4.2729 C.ar    1  UNL1        0.0989
     18 N          56.7432   91.0898    5.0807 N.ar    1  UNL1       -0.2426
     19 C          57.2767   90.0992    6.0728 C.ar    1  UNL1        0.0946
     20 S          65.8103   92.0224   13.5629 S.O2    1  UNL1        0.0274
     21 O          65.6139   90.7486   14.3302 O.2     1  UNL1       -0.1642
     22 O          66.0066   93.2962   12.7955 O.2     1  UNL1       -0.1642
     23 C          66.9071   92.4210   14.5052 C.ar    1  UNL1        0.1103
     24 C          67.2472   93.8702   14.6902 C.ar    1  UNL1        0.0187
     25 C          68.3440   94.2688   15.6326 C.ar    1  UNL1        0.0013
     26 C          69.1007   93.2183   16.3900 C.ar    1  UNL1        0.0001
     27 C          68.7607   91.7691   16.2050 C.ar    1  UNL1        0.0013
     28 C          67.6638   91.3705   15.2626 C.ar    1  UNL1        0.0187
@<TRIPOS>BOND
     1     7     8    2
     2     8     9   am
     3     9     1    1
     4     1     2   ar
     5     2     3   ar
     6     3     4   ar
     7     4    20    1
     8    20    21    2
     9    20    22    2
    10    20    23    1
    11    23    24   ar
    12    24    25   ar
    13    25    26   ar
    14    26    27   ar
    15    27    28   ar
    16     4     5   ar
    17     5     6   ar
    18    11     8    1
    19    11    12    1
    20    12    13    1
    21    13    14    1
    22    14    15   ar
    23    15    16   ar
    24    16    17   ar
    25    17    18   ar
    26    18    19   ar
    27     6     1   ar
    28    13    11    1
    29    19    14   ar
    30    28    23   ar
    31     9    10    1
@<TRIPOS>MOLECULE
*****
 28 31 0 0 0
SMALL
GASTEIGER

@<TRIPOS>ATOM
      1 C          60.9723   88.7453    9.0275 C.ar    1  UNL1        0.0504
      2 C          60.6348   87.2901    8.8921 C.ar    1  UNL1        0.0160
      3 C          61.1542   86.3033    9.8953 C.ar    1  UNL1        0.0200
      4 C          62.0111   86.7718   11.0339 C.ar    1  UNL1        0.1104
      5 C          62.3486   88.2270   11.1692 C.ar    1  UNL1        0.0200
      6 C          61.8292   89.2138   10.1660 C.ar    1  UNL1        0.0160
      7 O          58.9422   87.8876    6.9919 O.2     1  UNL1       -0.2748
      8 C          59.4379   89.3033    7.0065 C.2     1  UNL1        0.2260
      9 N          60.4528   89.7322    8.0243 N.am    1  UNL1       -0.2839
     10 H          60.7781   90.6613    8.0338 H       1  UNL1        0.1549
     11 C          58.9184   90.2902    6.0033 C.3     1  UNL1        0.0812
     12 C          57.7737   91.0487    5.3998 C.3     1  UNL1        0.0143
     13 C          59.1635   91.2409    4.8692 C.3     1  UNL1        0.0330
     14 C          60.1073   91.9006    3.9081 C.ar    1  UNL1       -0.0029
     15 C          61.5552   91.5092    3.8908 C.ar    1  UNL1       -0.0011
     16 C          62.4991   92.1690    2.9297 C.ar    1  UNL1        0.0204
     17 C          61.9951   93.2203    1.9858 C.ar    1  UNL1        0.0989
     18 N          60.5472   93.6117    2.0032 N.ar    1  UNL1       -0.2426
     19 C          59.6033   92.9519    2.9643 C.ar    1  UNL1        0.0946
     20 S          62.5306   85.7849   12.0371 S.O2    1  UNL1        0.0274
     21 O          63.1520   86.9052   12.8173 O.2     1  UNL1       -0.1642
     22 O          61.9091   84.6647   11.2569 O.2     1  UNL1       -0.1642
     23 C          63.0500   84.7982   13.0403 C.ar    1  UNL1        0.1103
     24 C          63.8905   85.2693   14.1900 C.ar    1  UNL1        0.0187
     25 C          64.4099   84.2826   15.1932 C.ar    1  UNL1        0.0013
     26 C          64.0889   82.8246   15.0468 C.ar    1  UNL1        0.0001
     27 C          63.2485   82.3535   13.8971 C.ar    1  UNL1        0.0013
     28 C          62.7290   83.3403   12.8939 C.ar    1  UNL1        0.0187
@<TRIPOS>BOND
     1     7     8    2
     2     8     9   am
     3     9     1    1
     4     1     2   ar
     5     2     3   ar
     6     3     4   ar
     7     4    20    1
     8    20    21    2
     9    20    22    2
    10    20    23    1
    11    23    24   ar
    12    24    25   ar
    13    25    26   ar
    14    26    27   ar
    15    27    28   ar
    16     4     5   ar
    17     5     6   ar
    18    11     8    1
    19    11    12    1
    20    12    13    1
    21    13    14    1
    22    14    15   ar
    23    15    16   ar
    24    16    17   ar
    25    17    18   ar
    26    18    19   ar
    27     6     1   ar
    28    13    11    1
    29    19    14   ar
    30    28    23   ar
    31     9    10    1
@<TRIPOS>MOLECULE
*****
 28 31 0 0 0
SMALL
GASTEIGER

@<TRIPOS>ATOM
      1 C          59.6838   88.5782    7.6657 C.ar    1  UNL1        0.0504
      2 C          60.4278   89.1050    8.8569 C.ar    1  UNL1        0.0160
      3 C          61.1734   88.1611    9.7530 C.ar    1  UNL1        0.0200
      4 C          61.1750   86.6904    9.4580 C.ar    1  UNL1        0.1104
      5 C          60.4310   86.1636    8.2668 C.ar    1  UNL1        0.0200
      6 C          59.6854   87.1075    7.3707 C.ar    1  UNL1        0.0160
      7 O          61.1715   90.2058    5.6315 O.2     1  UNL1       -0.2748
      8 C          59.6820   90.3359    5.7524 C.2     1  UNL1        0.2260
      9 N          58.9382   89.5222    6.7695 N.am    1  UNL1       -0.2839
     10 H          57.9606   89.6076    6.8489 H       1  UNL1        0.1549
     11 C          58.9364   91.2799    4.8562 C.3     1  UNL1        0.0812
     12 C          57.6716   91.9992    4.4919 C.3     1  UNL1        0.0143
     13 C          58.9098   92.1954    3.6683 C.3     1  UNL1        0.0330
     14 C          59.6093   92.8371    2.5069 C.ar    1  UNL1       -0.0029
     15 C          61.0639   93.1888    2.6088 C.ar    1  UNL1       -0.0011
     16 C          61.7634   93.8306    1.4474 C.ar    1  UNL1        0.0204
     17 C          61.0083   94.1207    0.1841 C.ar    1  UNL1        0.0989
     18 N          59.5536   93.7689    0.0823 N.ar    1  UNL1       -0.2426
     19 C          58.8542   93.1271    1.2438 C.ar    1  UNL1        0.0946
     20 S          61.9206   85.7465   10.3542 S.O2    1  UNL1        0.0274
     21 O          62.6864   85.2296    9.1726 O.2     1  UNL1       -0.1642
     22 O          61.1547   86.2633   11.5358 O.2     1  UNL1       -0.1642
     23 C          62.6662   84.8026   11.2503 C.ar    1  UNL1        0.1103
     24 C          62.5604   84.9416   12.7402 C.ar    1  UNL1        0.0187
     25 C          63.3060   83.9977   13.6363 C.ar    1  UNL1        0.0013
     26 C          64.1574   82.9147   13.0426 C.ar    1  UNL1        0.0001
     27 C          64.2632   82.7757   11.5529 C.ar    1  UNL1        0.0013
     28 C          63.5176   83.7196   10.6567 C.ar    1  UNL1        0.0187
@<TRIPOS>BOND
     1     7     8    2
     2     8     9   am
     3     9     1    1
     4     1     2   ar
     5     2     3   ar
     6     3     4   ar
     7     4    20    1
     8    20    21    2
     9    20    22    2
    10    20    23    1
    11    23    24   ar
    12    24    25   ar
    13    25    26   ar
    14    26    27   ar
    15    27    28   ar
    16     4     5   ar
    17     5     6   ar
    18    11     8    1
    19    11    12    1
    20    12    13    1
    21    13    14    1
    22    14    15   ar
    23    15    16   ar
    24    16    17   ar
    25    17    18   ar
    26    18    19   ar
    27     6     1   ar
    28    13    11    1
    29    19    14   ar
    30    28    23   ar
    31     9    10    1
@<TRIPOS>MOLECULE
*****
 28 31 0 0 0
SMALL
GASTEIGER

@<TRIPOS>ATOM
      1 C          71.4443   77.0040   12.5220 C.ar    1  UNL1        0.0504
      2 C          71.0230   77.0778   13.9597 C.ar    1  UNL1        0.0160
      3 C          70.9853   75.8325   14.7950 C.ar    1  UNL1        0.0200
      4 C          71.3690   74.5134   14.1926 C.ar    1  UNL1        0.1104
      5 C          71.7902   74.4396   12.7549 C.ar    1  UNL1        0.0200
      6 C          71.8279   75.6849   11.9196 C.ar    1  UNL1        0.0160
      7 O          73.6193   79.0270   12.9423 O.2     1  UNL1       -0.2748
      8 C          72.5694   79.2608   11.8967 C.2     1  UNL1        0.2260
      9 N          71.4819   78.2493   11.6866 N.am    1  UNL1       -0.2839
     10 H          70.7929   78.4027   11.0004 H       1  UNL1        0.1549
     11 C          72.6071   80.5061   11.0613 C.3     1  UNL1        0.0812
     12 C          72.8246   81.9856   10.9441 C.3     1  UNL1        0.0143
     13 C          72.4548   81.1835    9.7317 C.3     1  UNL1        0.0330
     14 C          72.1533   81.1115    8.2641 C.ar    1  UNL1       -0.0029
     15 C          71.7801   79.8003    7.6385 C.ar    1  UNL1       -0.0011
     16 C          71.4786   79.7283    6.1709 C.ar    1  UNL1        0.0204
     17 C          71.5504   80.9676    5.3288 C.ar    1  UNL1        0.0989
     18 N          71.9236   82.2788    5.9544 N.ar    1  UNL1       -0.2426
     19 C          72.2251   82.3508    7.4221 C.ar    1  UNL1        0.0946
     20 S          71.3313   73.2681   15.0280 S.O2    1  UNL1        0.0274
     21 O          72.8196   73.3390   15.2009 O.2     1  UNL1       -0.1642
     22 O          69.8430   73.1971   14.8552 O.2     1  UNL1       -0.1642
     23 C          71.2937   72.0228   15.8634 C.ar    1  UNL1        0.1103
     24 C          71.8045   70.7283   15.3035 C.ar    1  UNL1        0.0187
     25 C          71.7669   69.4831   16.1389 C.ar    1  UNL1        0.0013
     26 C          71.2185   69.5322   17.5341 C.ar    1  UNL1        0.0001
     27 C          70.7076   70.8266   18.0941 C.ar    1  UNL1        0.0013
     28 C          70.7452   72.0720   17.2587 C.ar    1  UNL1        0.0187
@<TRIPOS>BOND
     1     7     8    2
     2     8     9   am
     3     9     1    1
     4     1     2   ar
     5     2     3   ar
     6     3     4   ar
     7     4    20    1
     8    20    21    2
     9    20    22    2
    10    20    23    1
    11    23    24   ar
    12    24    25   ar
    13    25    26   ar
    14    26    27   ar
    15    27    28   ar
    16     4     5   ar
    17     5     6   ar
    18    11     8    1
    19    11    12    1
    20    12    13    1
    21    13    14    1
    22    14    15   ar
    23    15    16   ar
    24    16    17   ar
    25    17    18   ar
    26    18    19   ar
    27     6     1   ar
    28    13    11    1
    29    19    14   ar
    30    28    23   ar
    31     9    10    1
@<TRIPOS>MOLECULE
*****
 28 31 0 0 0
SMALL
GASTEIGER

@<TRIPOS>ATOM
      1 C          60.9195   91.5463    4.2545 C.ar    1  UNL1        0.0504
      2 C          59.7282   92.3796    3.8852 C.ar    1  UNL1        0.0160
      3 C          59.7777   93.2640    2.6748 C.ar    1  UNL1        0.0200
      4 C          61.0187   93.3153    1.8336 C.ar    1  UNL1        0.1104
      5 C          62.2100   92.4821    2.2029 C.ar    1  UNL1        0.0200
      6 C          62.1604   91.5976    3.4133 C.ar    1  UNL1        0.0160
      7 O          58.2946   90.4441    5.2005 O.2     1  UNL1       -0.2748
      8 C          59.5575   90.1107    5.9380 C.2     1  UNL1        0.2260
      9 N          60.8700   90.6618    5.4650 N.am    1  UNL1       -0.2839
     10 H          61.6989   90.4430    5.9490 H       1  UNL1        0.1549
     11 C          59.5080   89.2262    7.1485 C.3     1  UNL1        0.0812
     12 C          59.0127   87.9862    7.8319 C.3     1  UNL1        0.0143
     13 C          59.9175   88.9342    8.5617 C.3     1  UNL1        0.0330
     14 C          60.6764   89.3129    9.7988 C.ar    1  UNL1       -0.0029
     15 C          62.0673   89.8631    9.6866 C.ar    1  UNL1       -0.0011
     16 C          62.8261   90.2419   10.9238 C.ar    1  UNL1        0.0204
     17 C          62.1940   90.0704   12.2733 C.ar    1  UNL1        0.0989
     18 N          60.8031   89.5201   12.3856 N.ar    1  UNL1       -0.2426
     19 C          60.0443   89.1414   11.1483 C.ar    1  UNL1        0.0946
     20 S          61.0682   94.1998    0.6231 S.O2    1  UNL1        0.0274
     21 O          59.6814   94.6868    0.9223 O.2     1  UNL1       -0.1642
     22 O          62.4550   93.7128    0.3240 O.2     1  UNL1       -0.1642
     23 C          61.1177   95.0843   -0.5873 C.ar    1  UNL1        0.1103
     24 C          62.4407   95.4883   -1.1674 C.ar    1  UNL1        0.0187
     25 C          62.4902   96.3728   -2.3779 C.ar    1  UNL1        0.0013
     26 C          61.2167   96.8534   -3.0082 C.ar    1  UNL1        0.0001
     27 C          59.8937   96.4494   -2.4281 C.ar    1  UNL1        0.0013
     28 C          59.8442   95.5648   -1.2176 C.ar    1  UNL1        0.0187
@<TRIPOS>BOND
     1     7     8    2
     2     8     9   am
     3     9     1    1
     4     1     2   ar
     5     2     3   ar
     6     3     4   ar
     7     4    20    1
     8    20    21    2
     9    20    22    2
    10    20    23    1
    11    23    24   ar
    12    24    25   ar
    13    25    26   ar
    14    26    27   ar
    15    27    28   ar
    16     4     5   ar
    17     5     6   ar
    18    11     8    1
    19    11    12    1
    20    12    13    1
    21    13    14    1
    22    14    15   ar
    23    15    16   ar
    24    16    17   ar
    25    17    18   ar
    26    18    19   ar
    27     6     1   ar
    28    13    11    1
    29    19    14   ar
    30    28    23   ar
    31     9    10    1
@<TRIPOS>MOLECULE
*****
 28 31 0 0 0
SMALL
GASTEIGER

@<TRIPOS>ATOM
      1 C          61.8009   91.7462    3.5018 C.ar    1  UNL1        0.0504
      2 C          61.0511   92.8276    2.7818 C.ar    1  UNL1        0.0160
      3 C          61.7421   93.6499    1.7349 C.ar    1  UNL1        0.0200
      4 C          63.1830   93.3910    1.4079 C.ar    1  UNL1        0.1104
      5 C          63.9328   92.3097    2.1279 C.ar    1  UNL1        0.0200
      6 C          63.2418   91.4873    3.1748 C.ar    1  UNL1        0.0160
      7 O          58.8523   92.0638    3.9543 O.2     1  UNL1       -0.2748
      8 C          59.6356   91.0826    4.7750 C.2     1  UNL1        0.2260
      9 N          61.1099   90.9238    4.5488 N.am    1  UNL1       -0.2839
     10 H          61.6240   90.2798    5.0874 H       1  UNL1        0.1549
     11 C          58.9446   90.2601    5.8220 C.3     1  UNL1        0.0812
     12 C          57.6808   89.7792    6.4712 C.3     1  UNL1        0.0143
     13 C          59.0115   89.3165    6.9861 C.3     1  UNL1        0.0330
     14 C          59.8184   88.5046    7.9554 C.ar    1  UNL1       -0.0029
     15 C          60.6152   89.1891    9.0261 C.ar    1  UNL1       -0.0011
     16 C          61.4221   88.3772    9.9954 C.ar    1  UNL1        0.0204
     17 C          61.4323   86.8806    9.8940 C.ar    1  UNL1        0.0989
     18 N          60.6355   86.1960    8.8233 N.ar    1  UNL1       -0.2426
     19 C          59.8285   87.0081    7.8540 C.ar    1  UNL1        0.0946
     20 S          63.8740   94.2135    0.3609 S.O2    1  UNL1        0.0274
     21 O          62.9631   93.6453   -0.6866 O.2     1  UNL1       -0.1642
     22 O          64.7849   94.7817    1.4084 O.2     1  UNL1       -0.1642
     23 C          64.5650   95.0359   -0.6860 C.ar    1  UNL1        0.1103
     24 C          64.2031   94.8671   -2.1320 C.ar    1  UNL1        0.0187
     25 C          64.8941   95.6895   -3.1790 C.ar    1  UNL1        0.0013
     26 C          65.9469   96.6807   -2.7801 C.ar    1  UNL1        0.0001
     27 C          66.3087   96.8495   -1.3342 C.ar    1  UNL1        0.0013
     28 C          65.6177   96.0271   -0.2872 C.ar    1  UNL1        0.0187
@<TRIPOS>BOND
     1     7     8    2
     2     8     9   am
     3     9     1    1
     4     1     2   ar
     5     2     3   ar
     6     3     4   ar
     7     4    20    1
     8    20    21    2
     9    20    22    2
    10    20    23    1
    11    23    24   ar
    12    24    25   ar
    13    25    26   ar
    14    26    27   ar
    15    27    28   ar
    16     4     5   ar
    17     5     6   ar
    18    11     8    1
    19    11    12    1
    20    12    13    1
    21    13    14    1
    22    14    15   ar
    23    15    16   ar
    24    16    17   ar
    25    17    18   ar
    26    18    19   ar
    27     6     1   ar
    28    13    11    1
    29    19    14   ar
    30    28    23   ar
    31     9    10    1
@<TRIPOS>MOLECULE
*****
 28 31 0 0 0
SMALL
GASTEIGER

@<TRIPOS>ATOM
      1 C          44.8463   74.7064   17.6870 C.ar    1  UNL1        0.0504
      2 C          44.8037   73.2960   18.1958 C.ar    1  UNL1        0.0160
      3 C          44.8521   72.1487   17.2308 C.ar    1  UNL1        0.0200
      4 C          44.9430   72.4118   15.7568 C.ar    1  UNL1        0.1104
      5 C          44.9856   73.8222   15.2480 C.ar    1  UNL1        0.0200
      6 C          44.9372   74.9695   16.2130 C.ar    1  UNL1        0.0160
      7 O          46.8399   74.8710   19.9227 O.2     1  UNL1       -0.2748
      8 C          45.7947   75.9360   19.7699 C.2     1  UNL1        0.2260
      9 N          44.7979   75.8537   18.6520 N.am    1  UNL1       -0.2839
     10 H          44.1119   76.5527   18.5518 H       1  UNL1        0.1549
     11 C          45.7464   77.0834   20.7349 C.3     1  UNL1        0.0812
     12 C          45.8522   77.6073   22.1364 C.3     1  UNL1        0.0143
     13 C          45.5567   78.5467   21.0050 C.3     1  UNL1        0.0330
     14 C          45.2767   79.9338   20.5076 C.ar    1  UNL1       -0.0029
     15 C          43.9136   80.5337   20.6863 C.ar    1  UNL1       -0.0011
     16 C          43.6335   81.9208   20.1889 C.ar    1  UNL1        0.0204
     17 C          44.7166   82.7081   19.5127 C.ar    1  UNL1        0.0989
     18 N          46.0798   82.1082   19.3340 N.ar    1  UNL1       -0.2426
     19 C          46.3598   80.7210   19.8314 C.ar    1  UNL1        0.0946
     20 S          44.9914   71.2645   14.7918 S.O2    1  UNL1        0.0274
     21 O          43.7458   71.7711   14.1271 O.2     1  UNL1       -0.1642
     22 O          46.2369   70.7578   15.4564 O.2     1  UNL1       -0.1642
     23 C          45.0397   70.1172   13.8267 C.ar    1  UNL1        0.1103
     24 C          46.1807   69.1446   13.8744 C.ar    1  UNL1        0.0187
     25 C          46.2290   67.9973   12.9093 C.ar    1  UNL1        0.0013
     26 C          45.1363   67.8225   11.8966 C.ar    1  UNL1        0.0001
     27 C          43.9954   68.7951   11.8489 C.ar    1  UNL1        0.0013
     28 C          43.9470   69.9425   12.8140 C.ar    1  UNL1        0.0187
@<TRIPOS>BOND
     1     7     8    2
     2     8     9   am
     3     9     1    1
     4     1     2   ar
     5     2     3   ar
     6     3     4   ar
     7     4    20    1
     8    20    21    2
     9    20    22    2
    10    20    23    1
    11    23    24   ar
    12    24    25   ar
    13    25    26   ar
    14    26    27   ar
    15    27    28   ar
    16     4     5   ar
    17     5     6   ar
    18    11     8    1
    19    11    12    1
    20    12    13    1
    21    13    14    1
    22    14    15   ar
    23    15    16   ar
    24    16    17   ar
    25    17    18   ar
    26    18    19   ar
    27     6     1   ar
    28    13    11    1
    29    19    14   ar
    30    28    23   ar
    31     9    10    1
