@<TRIPOS>MOLECULE
*****
 33 37 0 0 0
SMALL
GASTEIGER

@<TRIPOS>ATOM
      1 C          60.3355   95.1246    0.0550 C.ar    1  UNL1       -0.0067
      2 C          61.6162   95.3674   -0.6874 C.ar    1  UNL1        0.0002
      3 C          62.8637   94.6356   -0.2901 C.ar    1  UNL1        0.0363
      4 C          62.8307   93.6609    0.8496 C.ar    1  UNL1        0.1346
      5 C          61.5501   93.4180    1.5919 C.ar    1  UNL1        0.0145
      6 C          60.3025   94.1498    1.1946 C.ar    1  UNL1       -0.0041
      7 C          61.8213   92.4058    2.6653 C.3     1  UNL1        0.0654
      8 C          62.2410   91.3915    3.6876 C.3     1  UNL1        0.0293
      9 C          61.2397   90.8561    4.6677 C.3     1  UNL1        0.0943
     10 N          59.8188   91.3349    4.6256 N.am    1  UNL1       -0.2736
     11 C          58.8176   90.7994    5.6059 C.2     1  UNL1        0.2838
     12 O          57.3967   91.2782    5.5638 O.2     1  UNL1       -0.2666
     13 C          59.3992   92.3491    3.6033 C.3     1  UNL1        0.0943
     14 C          60.4004   92.8846    2.6232 C.3     1  UNL1        0.0293
     15 C          63.2695   92.0231    2.5863 C.3     1  UNL1        0.2094
     16 O          63.8934   92.7988    1.4641 O.3     1  UNL1       -0.4754
     17 C          59.2373   89.7851    6.6282 C.ar    1  UNL1        0.1995
     18 C          58.7874   88.3555    6.6880 C.ar    1  UNL1        0.0460
     19 C          59.4526   87.7092    7.8669 C.ar    1  UNL1        0.0495
     20 C          60.3136   88.7395    8.5357 C.ar    1  UNL1        0.1873
     21 O          60.1805   90.0225    7.7701 O.2     1  UNL1       -0.4407
     22 C          61.1592   88.5245    9.7558 C.1     1  UNL1       -0.0225
     23 C          62.0048   88.3095   10.9760 C.1     1  UNL1       -0.0568
     24 C          62.8504   88.0945   12.1961 C.ar    1  UNL1        0.0421
     25 C          63.4134   89.2719   12.9354 C.ar    1  UNL1        0.0082
     26 C          64.2590   89.0569   14.1555 C.ar    1  UNL1        0.0006
     27 C          64.5416   87.6644   14.6363 C.ar    1  UNL1        0.0000
     28 C          63.9786   86.4870   13.8970 C.ar    1  UNL1        0.0006
     29 C          63.1330   86.7020   12.6769 C.ar    1  UNL1        0.0082
     30 N          57.7845   95.1201   -0.4374 N.3     1  UNL1       -0.3175
     31 C          59.0879   95.8564   -0.3424 C.3     1  UNL1        0.0922
     32 H          57.0479   95.7675   -0.7179 H       1  UNL1        0.1192
     33 H          57.5548   94.7167    0.4708 H       1  UNL1        0.1192
@<TRIPOS>BOND
     1    30    31    1
     2    31     1    1
     3     1     2   ar
     4     2     3   ar
     5     3     4   ar
     6     4     5   ar
     7     5     6   ar
     8     5     7    1
     9     7     8    1
    10     8     9    1
    11     9    10    1
    12    10    11   am
    13    11    12    2
    14    11    17    1
    15    17    18   ar
    16    18    19   ar
    17    19    20   ar
    18    20    22    1
    19    22    23    3
    20    23    24    1
    21    24    25   ar
    22    25    26   ar
    23    26    27   ar
    24    27    28   ar
    25    28    29   ar
    26    20    21   ar
    27    10    13    1
    28    13    14    1
    29     7    15    1
    30    15    16    1
    31     6     1   ar
    32    14     7    1
    33    16     4    1
    34    21    17   ar
    35    29    24   ar
    36    30    32    1
    37    30    33    1
@<TRIPOS>MOLECULE
*****
 33 37 0 0 0
SMALL
GASTEIGER

@<TRIPOS>ATOM
      1 C          63.3555   85.5037   13.1142 C.ar    1  UNL1       -0.0067
      2 C          64.1530   86.1943   14.1806 C.ar    1  UNL1        0.0002
      3 C          64.2934   87.6875   14.1637 C.ar    1  UNL1        0.0363
      4 C          63.6363   88.4903   13.0803 C.ar    1  UNL1        0.1346
      5 C          62.8389   87.7999   12.0139 C.ar    1  UNL1        0.0145
      6 C          62.6985   86.3065   12.0308 C.ar    1  UNL1       -0.0041
      7 C          62.3087   88.8473   11.0800 C.3     1  UNL1        0.0654
      8 C          61.8512   90.0004   10.2369 C.3     1  UNL1        0.0293
      9 C          61.0006   89.7534    9.0264 C.3     1  UNL1        0.0943
     10 N          60.6076   88.3532    8.6590 N.am    1  UNL1       -0.2736
     11 C          59.7570   88.1062    7.4483 C.2     1  UNL1        0.2838
     12 O          59.3640   86.7060    7.0809 O.2     1  UNL1       -0.2666
     13 C          61.0652   87.2001    9.5021 C.3     1  UNL1        0.0943
     14 C          61.9157   87.4471   10.7126 C.3     1  UNL1        0.0293
     15 C          62.7785   90.1852   11.5694 C.3     1  UNL1        0.2094
     16 O          63.5991   89.9646   12.8057 O.3     1  UNL1       -0.4754
     17 C          59.2994   89.2593    6.6052 C.ar    1  UNL1        0.1995
     18 C          57.9070   89.8144    6.5516 C.ar    1  UNL1        0.0460
     19 C          57.9009   90.9579    5.5809 C.ar    1  UNL1        0.0495
     20 C          59.2897   91.1097    5.0347 C.ar    1  UNL1        0.1873
     21 O          60.1540   90.0598    5.6678 O.2     1  UNL1       -0.4407
     22 C          59.7358   92.1318    4.0315 C.1     1  UNL1       -0.0225
     23 C          60.1819   93.1538    3.0284 C.1     1  UNL1       -0.0568
     24 C          60.6280   94.1759    2.0253 C.ar    1  UNL1        0.0421
     25 C          61.4883   93.7648    0.8674 C.ar    1  UNL1        0.0082
     26 C          61.9344   94.7868   -0.1357 C.ar    1  UNL1        0.0006
     27 C          61.5201   96.2202    0.0190 C.ar    1  UNL1        0.0000
     28 C          60.6598   96.6314    1.1768 C.ar    1  UNL1        0.0006
     29 C          60.2137   95.6093    2.1800 C.ar    1  UNL1        0.0082
     30 N          64.4008   83.1422   12.8302 N.3     1  UNL1       -0.3175
     31 C          63.2152   84.0105   13.1311 C.3     1  UNL1        0.0922
     32 H          64.1267   82.1613   12.8860 H       1  UNL1        0.1192
     33 H          65.1393   83.3279   13.5089 H       1  UNL1        0.1192
@<TRIPOS>BOND
     1    30    31    1
     2    31     1    1
     3     1     2   ar
     4     2     3   ar
     5     3     4   ar
     6     4     5   ar
     7     5     6   ar
     8     5     7    1
     9     7     8    1
    10     8     9    1
    11     9    10    1
    12    10    11   am
    13    11    12    2
    14    11    17    1
    15    17    18   ar
    16    18    19   ar
    17    19    20   ar
    18    20    22    1
    19    22    23    3
    20    23    24    1
    21    24    25   ar
    22    25    26   ar
    23    26    27   ar
    24    27    28   ar
    25    28    29   ar
    26    20    21   ar
    27    10    13    1
    28    13    14    1
    29     7    15    1
    30    15    16    1
    31     6     1   ar
    32    14     7    1
    33    16     4    1
    34    21    17   ar
    35    29    24   ar
    36    30    32    1
    37    30    33    1
@<TRIPOS>MOLECULE
*****
 33 37 0 0 0
SMALL
GASTEIGER

@<TRIPOS>ATOM
      1 C          63.4465   83.9382   14.3250 C.ar    1  UNL1       -0.0067
      2 C          64.3178   82.7412   14.0834 C.ar    1  UNL1        0.0002
      3 C          64.6302   82.3120   12.6805 C.ar    1  UNL1        0.0363
      4 C          64.0714   83.0795   11.5193 C.ar    1  UNL1        0.1346
      5 C          63.2002   84.2764   11.7609 C.ar    1  UNL1        0.0145
      6 C          62.8878   84.7058   13.1638 C.ar    1  UNL1       -0.0041
      7 C          62.7956   84.8321   10.4275 C.3     1  UNL1        0.0654
      8 C          62.4754   85.2720    9.0297 C.3     1  UNL1        0.0293
      9 C          61.6028   86.4706    8.8021 C.3     1  UNL1        0.0943
     10 N          61.0506   87.2294    9.9722 N.am    1  UNL1       -0.2736
     11 C          60.1780   88.4281    9.7445 C.2     1  UNL1        0.2838
     12 O          59.6257   89.1869   10.9147 O.2     1  UNL1       -0.2666
     13 C          61.3708   86.7895   11.3700 C.3     1  UNL1        0.0943
     14 C          62.2434   85.5909   11.5977 C.3     1  UNL1        0.0293
     15 C          63.4169   83.9786    9.3619 C.3     1  UNL1        0.2094
     16 O          64.2054   82.8954   10.0366 O.3     1  UNL1       -0.4754
     17 C          59.8577   88.8680    8.3467 C.ar    1  UNL1        0.1995
     18 C          58.7408   88.3461    7.4923 C.ar    1  UNL1        0.0460
     19 C          58.7909   89.0625    6.1754 C.ar    1  UNL1        0.0495
     20 C          59.9389   90.0272    6.2159 C.ar    1  UNL1        0.1873
     21 O          60.5982   89.9070    7.5579 O.2     1  UNL1       -0.4407
     22 C          60.3545   90.9501    5.1089 C.1     1  UNL1       -0.0225
     23 C          60.7701   91.8730    4.0019 C.1     1  UNL1       -0.0568
     24 C          61.1857   92.7959    2.8949 C.ar    1  UNL1        0.0421
     25 C          62.5305   92.6359    2.2502 C.ar    1  UNL1        0.0082
     26 C          62.9461   93.5588    1.1431 C.ar    1  UNL1        0.0006
     27 C          62.0168   94.6417    0.6808 C.ar    1  UNL1        0.0000
     28 C          60.6720   94.8017    1.3255 C.ar    1  UNL1        0.0006
     29 C          60.2564   93.8788    2.4325 C.ar    1  UNL1        0.0082
     30 N          61.9600   85.2621   15.9946 N.3     1  UNL1       -0.3175
     31 C          63.1341   84.3675   15.7278 C.3     1  UNL1        0.0922
     32 H          61.8972   85.4515   16.9949 H       1  UNL1        0.1192
     33 H          61.1047   84.8031   15.6811 H       1  UNL1        0.1192
@<TRIPOS>BOND
     1    30    31    1
     2    31     1    1
     3     1     2   ar
     4     2     3   ar
     5     3     4   ar
     6     4     5   ar
     7     5     6   ar
     8     5     7    1
     9     7     8    1
    10     8     9    1
    11     9    10    1
    12    10    11   am
    13    11    12    2
    14    11    17    1
    15    17    18   ar
    16    18    19   ar
    17    19    20   ar
    18    20    22    1
    19    22    23    3
    20    23    24    1
    21    24    25   ar
    22    25    26   ar
    23    26    27   ar
    24    27    28   ar
    25    28    29   ar
    26    20    21   ar
    27    10    13    1
    28    13    14    1
    29     7    15    1
    30    15    16    1
    31     6     1   ar
    32    14     7    1
    33    16     4    1
    34    21    17   ar
    35    29    24   ar
    36    30    32    1
    37    30    33    1
@<TRIPOS>MOLECULE
*****
 33 37 0 0 0
SMALL
GASTEIGER

@<TRIPOS>ATOM
      1 C          62.7445   80.1647   11.7210 C.ar    1  UNL1       -0.0067
      2 C          63.1679   79.5070   13.0009 C.ar    1  UNL1        0.0002
      3 C          63.5569   80.3455   14.1821 C.ar    1  UNL1        0.0363
      4 C          63.5227   81.8419   14.0835 C.ar    1  UNL1        0.1346
      5 C          63.0994   82.4996   12.8036 C.ar    1  UNL1        0.0145
      6 C          62.7103   81.6611   11.6224 C.ar    1  UNL1       -0.0041
      7 C          63.1634   83.9851   13.0026 C.3     1  UNL1        0.0654
      8 C          63.2758   85.4404   13.3479 C.3     1  UNL1        0.0293
      9 C          62.9365   86.4825   12.3238 C.3     1  UNL1        0.0943
     10 N          62.4848   86.0693   10.9544 N.am    1  UNL1       -0.2736
     11 C          62.1455   87.1115    9.9302 C.2     1  UNL1        0.2838
     12 O          61.6939   86.6983    8.5608 O.2     1  UNL1       -0.2666
     13 C          62.3724   84.6140   10.6091 C.3     1  UNL1        0.0943
     14 C          62.7117   83.5718   11.6332 C.3     1  UNL1        0.0293
     15 C          63.6263   84.2453   14.4054 C.3     1  UNL1        0.2094
     16 O          63.8483   82.9207   15.0736 O.3     1  UNL1       -0.4754
     17 C          62.2579   88.5669   10.2755 C.ar    1  UNL1        0.1995
     18 C          61.2271   89.3841   10.9963 C.ar    1  UNL1        0.0460
     19 C          61.7529   90.7829   11.1270 C.ar    1  UNL1        0.0495
     20 C          63.1087   90.8301   10.4869 C.ar    1  UNL1        0.1873
     21 O          63.4208   89.4605    9.9607 O.2     1  UNL1       -0.4407
     22 C          63.9965   92.0352   10.3900 C.1     1  UNL1       -0.0225
     23 C          64.8843   93.2404   10.2931 C.1     1  UNL1       -0.0568
     24 C          65.7721   94.4456   10.1963 C.ar    1  UNL1        0.0421
     25 C          65.6796   95.5301   11.2283 C.ar    1  UNL1        0.0082
     26 C          66.5674   96.7353   11.1314 C.ar    1  UNL1        0.0006
     27 C          67.5477   96.8559   10.0025 C.ar    1  UNL1        0.0000
     28 C          67.6402   95.7713    8.9705 C.ar    1  UNL1        0.0006
     29 C          66.7524   94.5662    9.0673 C.ar    1  UNL1        0.0082
     30 N          62.7692   77.8858   10.4736 N.3     1  UNL1       -0.3175
     31 C          62.3555   79.3262   10.5398 C.3     1  UNL1        0.0922
     32 H          62.4218   77.4717    9.6086 H       1  UNL1        0.1192
     33 H          62.3801   77.3833   11.2714 H       1  UNL1        0.1192
@<TRIPOS>BOND
     1    30    31    1
     2    31     1    1
     3     1     2   ar
     4     2     3   ar
     5     3     4   ar
     6     4     5   ar
     7     5     6   ar
     8     5     7    1
     9     7     8    1
    10     8     9    1
    11     9    10    1
    12    10    11   am
    13    11    12    2
    14    11    17    1
    15    17    18   ar
    16    18    19   ar
    17    19    20   ar
    18    20    22    1
    19    22    23    3
    20    23    24    1
    21    24    25   ar
    22    25    26   ar
    23    26    27   ar
    24    27    28   ar
    25    28    29   ar
    26    20    21   ar
    27    10    13    1
    28    13    14    1
    29     7    15    1
    30    15    16    1
    31     6     1   ar
    32    14     7    1
    33    16     4    1
    34    21    17   ar
    35    29    24   ar
    36    30    32    1
    37    30    33    1
@<TRIPOS>MOLECULE
*****
 33 37 0 0 0
SMALL
GASTEIGER

@<TRIPOS>ATOM
      1 C          64.1775   90.6977   15.6108 C.ar    1  UNL1       -0.0067
      2 C          65.3972   91.5579   15.7609 C.ar    1  UNL1        0.0002
      3 C          65.9733   92.2576   14.5658 C.ar    1  UNL1        0.0363
      4 C          65.3297   92.0972   13.2204 C.ar    1  UNL1        0.1346
      5 C          64.1100   91.2371   13.0702 C.ar    1  UNL1        0.0145
      6 C          63.5339   90.5374   14.2654 C.ar    1  UNL1       -0.0041
      7 C          63.6960   91.2674   11.6287 C.3     1  UNL1        0.0654
      8 C          63.4043   91.3932   10.1628 C.3     1  UNL1        0.0293
      9 C          62.2323   90.6714    9.5667 C.3     1  UNL1        0.0943
     10 N          61.3520   89.8238   10.4366 N.am    1  UNL1       -0.2736
     11 C          60.1799   89.1020    9.8404 C.2     1  UNL1        0.2838
     12 O          59.2995   88.2545   10.7103 O.2     1  UNL1       -0.2666
     13 C          61.6436   89.6981   11.9025 C.3     1  UNL1        0.0943
     14 C          62.8157   90.4199   12.4986 C.3     1  UNL1        0.0293
     15 C          64.6599   92.1463   10.8880 C.3     1  UNL1        0.2094
     16 O          65.6696   92.6592   11.8717 O.3     1  UNL1       -0.4754
     17 C          59.8882   89.2278    8.3745 C.ar    1  UNL1        0.1995
     18 C          59.3467   88.1462    7.4874 C.ar    1  UNL1        0.0460
     19 C          59.2106   88.7072    6.1029 C.ar    1  UNL1        0.0495
     20 C          59.6680   90.1354    6.1343 C.ar    1  UNL1        0.1873
     21 O          60.0868   90.4571    7.5383 O.2     1  UNL1       -0.4407
     22 C          59.7009   91.0766    4.9668 C.1     1  UNL1       -0.0225
     23 C          59.7338   92.0178    3.7993 C.1     1  UNL1       -0.0568
     24 C          59.7666   92.9590    2.6318 C.ar    1  UNL1        0.0421
     25 C          59.1892   92.5384    1.3129 C.ar    1  UNL1        0.0082
     26 C          59.2221   93.4796    0.1454 C.ar    1  UNL1        0.0006
     27 C          59.8324   94.8415    0.2969 C.ar    1  UNL1        0.0000
     28 C          60.4098   95.2620    1.6158 C.ar    1  UNL1        0.0006
     29 C          60.3769   94.3208    2.7833 C.ar    1  UNL1        0.0082
     30 N          62.9886   88.6372   16.6552 N.3     1  UNL1       -0.3175
     31 C          63.6014   89.9981   16.8059 C.3     1  UNL1        0.0922
     32 H          62.6500   88.3145   17.5616 H       1  UNL1        0.1192
     33 H          63.6897   87.9857   16.3025 H       1  UNL1        0.1192
@<TRIPOS>BOND
     1    30    31    1
     2    31     1    1
     3     1     2   ar
     4     2     3   ar
     5     3     4   ar
     6     4     5   ar
     7     5     6   ar
     8     5     7    1
     9     7     8    1
    10     8     9    1
    11     9    10    1
    12    10    11   am
    13    11    12    2
    14    11    17    1
    15    17    18   ar
    16    18    19   ar
    17    19    20   ar
    18    20    22    1
    19    22    23    3
    20    23    24    1
    21    24    25   ar
    22    25    26   ar
    23    26    27   ar
    24    27    28   ar
    25    28    29   ar
    26    20    21   ar
    27    10    13    1
    28    13    14    1
    29     7    15    1
    30    15    16    1
    31     6     1   ar
    32    14     7    1
    33    16     4    1
    34    21    17   ar
    35    29    24   ar
    36    30    32    1
    37    30    33    1
