@<TRIPOS>MOLECULE
*****
 53 59 0 0 0
SMALL
GASTEIGER

@<TRIPOS>ATOM
      1 C          67.1465   93.9333   15.2299 C.ar    1  UNL1        0.2341
      2 N          67.8419   95.2487   15.4198 N.ar    1  UNL1       -0.2073
      3 C          69.2205   95.2899   16.0095 C.ar    1  UNL1        0.1316
      4 C          69.9037   94.0158   16.4093 C.ar    1  UNL1        0.1596
      5 F          71.2823   94.0570   16.9990 F       1  UNL1       -0.2025
      6 C          69.2083   92.7004   16.2194 C.ar    1  UNL1        0.0405
      7 C          67.8296   92.6591   15.6297 C.ar    1  UNL1        0.1090
      8 C          67.1341   91.3437   15.4398 C.2     1  UNL1        0.2504
      9 O          67.9064   90.1487   14.9650 O.2     1  UNL1       -0.2700
     10 N          65.6663   91.2234   15.7247 N.am    1  UNL1       -0.3024
     11 H          65.1594   92.0077   16.0363 H       1  UNL1        0.1497
     12 C          64.9709   89.9080   15.5348 C.3     1  UNL1        0.0720
     13 C          65.3894   88.9920   14.4232 C.3     1  UNL1        0.0213
     14 C          64.6939   87.6765   14.2333 C.3     1  UNL1        0.0213
     15 C          63.5800   87.2772   15.1550 C.3     1  UNL1        0.0720
     16 C          63.1614   88.1932   16.2667 C.3     1  UNL1        0.0213
     17 C          63.8569   89.5086   16.4566 C.3     1  UNL1        0.0213
     18 N          62.8845   85.9618   14.9651 N.am    1  UNL1       -0.3012
     19 C          63.6702   84.7494   14.5614 C.2     1  UNL1        0.2653
     20 O          65.1512   84.8525   14.3477 O.2     1  UNL1       -0.2684
     21 H          61.9124   85.8941   15.1054 H       1  UNL1        0.1497
     22 C          62.9747   83.4340   14.3715 C.ar    1  UNL1        0.1558
     23 C          63.6068   82.1653   13.8809 C.ar    1  UNL1        0.0446
     24 C          62.5478   81.1035   13.8450 C.ar    1  UNL1        0.0846
     25 C          62.5888   79.6581   13.4463 C.ar    1  UNL1        0.0193
     26 C          61.3433   78.8252   13.5161 C.ar    1  UNL1        0.0031
     27 C          60.0567   79.4378   13.9846 C.ar    1  UNL1        0.0207
     28 C          60.0157   80.8833   14.3833 C.ar    1  UNL1        0.1004
     29 N          61.2612   81.7161   14.3135 N.ar    1  UNL1       -0.2281
     30 N          61.5251   83.1564   14.6389 N.ar    1  UNL1       -0.1604
     31 O          65.7678   93.8921   14.6402 O.3     1  UNL1       -0.4360
     32 C          64.5221   92.0280   11.3656 C.ar    1  UNL1        0.0030
     33 C          65.2068   92.8346   10.3024 C.ar    1  UNL1        0.0002
     34 C          66.0786   93.9938   10.6851 C.ar    1  UNL1        0.0031
     35 C          66.2656   94.3462   12.1310 C.ar    1  UNL1        0.0376
     36 C          65.5808   93.5396   13.1943 C.ar    1  UNL1        0.1472
     37 C          64.7091   92.3805   12.8116 C.ar    1  UNL1        0.0376
     38 C          61.9068   88.5506   10.2174 C.ar    1  UNL1       -0.0061
     39 C          62.0247   89.7342    9.3036 C.ar    1  UNL1       -0.0029
     40 C          62.8965   90.8934    9.6864 C.ar    1  UNL1       -0.0003
     41 C          63.6503   90.8689   10.9829 C.ar    1  UNL1        0.0001
     42 C          63.5325   89.6852   11.8967 C.ar    1  UNL1       -0.0003
     43 C          62.6607   88.5261   11.5140 C.ar    1  UNL1       -0.0029
     44 C          61.0351   87.3915    9.8347 C.3     1  UNL1        0.0992
     45 C          61.6654   84.3658    5.6577 C.3     1  UNL1        0.0186
     46 C          61.9540   84.6679    7.0984 C.3     1  UNL1        0.0702
     47 C          61.3503   85.8786    7.7463 C.3     1  UNL1        0.0882
     48 N          61.6388   86.1808    9.1869 N.3     1  UNL1       -0.2666
     49 C          62.5311   85.2722    9.9797 C.3     1  UNL1        0.0882
     50 C          63.1348   84.0615    9.3318 C.3     1  UNL1        0.0702
     51 C          64.0270   83.1530   10.1245 C.3     1  UNL1        0.0186
     52 N          62.8462   83.7594    7.8911 N.3     1  UNL1       -0.2974
     53 H          62.4214   82.8325    7.8640 H       1  UNL1        0.1232
@<TRIPOS>BOND
     1    46    45    1
     2    46    47    1
     3    47    48    1
     4    48    44    1
     5    44    38    1
     6    38    39   ar
     7    39    40   ar
     8    40    41   ar
     9    41    32    1
    10    32    33   ar
    11    33    34   ar
    12    34    35   ar
    13    35    36   ar
    14    36    31    1
    15    31     1    1
    16     1     2   ar
    17     2     3   ar
    18     3     4   ar
    19     4     5    1
    20     4     6   ar
    21     6     7   ar
    22     7     8    1
    23     8     9    2
    24     8    10   am
    25    12    10    1
    26    12    13    1
    27    13    14    1
    28    14    15    1
    29    15    18    1
    30    18    19   am
    31    19    20    2
    32    19    22    1
    33    22    23   ar
    34    23    24   ar
    35    24    25   ar
    36    25    26   ar
    37    26    27   ar
    38    27    28   ar
    39    28    29   ar
    40    29    30   ar
    41    15    16    1
    42    16    17    1
    43    36    37   ar
    44    41    42   ar
    45    42    43   ar
    46    48    49    1
    47    49    50    1
    48    50    51    1
    49    50    52    1
    50    52    46    1
    51    43    38   ar
    52    37    32   ar
    53     7     1   ar
    54    17    12    1
    55    30    22   ar
    56    29    24   ar
    57    10    11    1
    58    18    21    1
    59    52    53    1
@<TRIPOS>MOLECULE
*****
 53 59 0 0 0
SMALL
GASTEIGER

@<TRIPOS>ATOM
      1 C          59.9562   88.3789    8.1747 C.ar    1  UNL1        0.2341
      2 N          59.7605   88.0448    9.6239 N.ar    1  UNL1       -0.2073
      3 C          59.2762   89.0966   10.5773 C.ar    1  UNL1        0.1316
      4 C          58.9877   90.4827   10.0815 C.ar    1  UNL1        0.1596
      5 F          58.5034   91.5345   11.0350 F       1  UNL1       -0.2025
      6 C          59.1834   90.8168    8.6324 C.ar    1  UNL1        0.0405
      7 C          59.6677   89.7648    7.6790 C.ar    1  UNL1        0.1090
      8 C          59.8634   90.0989    6.2298 C.2     1  UNL1        0.2504
      9 O          59.1378   89.3171    5.1752 O.2     1  UNL1       -0.2700
     10 N          60.7849   91.2149    5.8352 N.am    1  UNL1       -0.3024
     11 H          61.2611   91.7281    6.5274 H       1  UNL1        0.1497
     12 C          60.9806   91.5490    4.3861 C.3     1  UNL1        0.0720
     13 C          62.2546   91.1657    3.6935 C.3     1  UNL1        0.0213
     14 C          62.4504   91.4998    2.2443 C.3     1  UNL1        0.0213
     15 C          61.3720   92.2173    1.4878 C.3     1  UNL1        0.0720
     16 C          60.0979   92.6006    2.1804 C.3     1  UNL1        0.0213
     17 C          59.9022   92.2665    3.6295 C.3     1  UNL1        0.0213
     18 N          61.5678   92.5514    0.0386 N.am    1  UNL1       -0.3012
     19 C          62.6428   93.5141   -0.3706 C.2     1  UNL1        0.2653
     20 O          63.5221   94.1427    0.6694 O.2     1  UNL1       -0.2684
     21 H          60.9906   92.1388   -0.6440 H       1  UNL1        0.1497
     22 C          62.8385   93.8482   -1.8197 C.ar    1  UNL1        0.1558
     23 C          61.8159   93.6936   -2.9061 C.ar    1  UNL1        0.0446
     24 C          62.4366   94.1454   -4.1948 C.ar    1  UNL1        0.0846
     25 C          61.9029   94.2178   -5.5947 C.ar    1  UNL1        0.0193
     26 C          62.7756   94.7241   -6.7047 C.ar    1  UNL1        0.0031
     27 C          64.1819   95.1579   -6.4147 C.ar    1  UNL1        0.0207
     28 C          64.7155   95.0855   -5.0148 C.ar    1  UNL1        0.1004
     29 N          63.8429   94.5793   -3.9048 N.ar    1  UNL1       -0.2281
     30 N          64.0913   94.3956   -2.4369 N.ar    1  UNL1       -0.1604
     31 O          60.4406   87.3269    7.2213 O.3     1  UNL1       -0.4360
     32 C          62.6363   85.0746    9.6411 C.ar    1  UNL1        0.0030
     33 C          63.1497   84.0434    8.6803 C.ar    1  UNL1        0.0002
     34 C          62.7600   84.1067    7.2332 C.ar    1  UNL1        0.0031
     35 C          61.8569   85.2012    6.7468 C.ar    1  UNL1        0.0376
     36 C          61.3436   86.2324    7.7076 C.ar    1  UNL1        0.1472
     37 C          61.7333   86.1691    9.1547 C.ar    1  UNL1        0.0376
     38 C          63.8054   84.8847   13.9824 C.ar    1  UNL1       -0.0061
     39 C          64.0815   83.7190   13.0796 C.ar    1  UNL1       -0.0029
     40 C          63.6918   83.7823   11.6325 C.ar    1  UNL1       -0.0003
     41 C          63.0260   85.0113   11.0882 C.ar    1  UNL1        0.0001
     42 C          62.7499   86.1769   11.9909 C.ar    1  UNL1       -0.0003
     43 C          63.1395   86.1137   13.4380 C.ar    1  UNL1       -0.0029
     44 C          64.1951   84.8214   15.4295 C.3     1  UNL1        0.0992
     45 C          63.4151   89.8835   16.3048 C.3     1  UNL1        0.0186
     46 C          63.4229   88.4663   16.7962 C.3     1  UNL1        0.0702
     47 C          63.8051   87.3524   15.8672 C.3     1  UNL1        0.0882
     48 N          63.8128   85.9352   16.3586 N.3     1  UNL1       -0.2666
     49 C          63.4384   85.6319   17.7791 C.3     1  UNL1        0.0882
     50 C          63.0562   86.7458   18.7082 C.3     1  UNL1        0.0702
     51 C          62.6817   86.4425   20.1286 C.3     1  UNL1        0.0186
     52 N          63.0484   88.1630   18.2167 N.3     1  UNL1       -0.2974
     53 H          63.6951   88.6837   18.8093 H       1  UNL1        0.1232
@<TRIPOS>BOND
     1    46    45    1
     2    46    47    1
     3    47    48    1
     4    48    44    1
     5    44    38    1
     6    38    39   ar
     7    39    40   ar
     8    40    41   ar
     9    41    32    1
    10    32    33   ar
    11    33    34   ar
    12    34    35   ar
    13    35    36   ar
    14    36    31    1
    15    31     1    1
    16     1     2   ar
    17     2     3   ar
    18     3     4   ar
    19     4     5    1
    20     4     6   ar
    21     6     7   ar
    22     7     8    1
    23     8     9    2
    24     8    10   am
    25    12    10    1
    26    12    13    1
    27    13    14    1
    28    14    15    1
    29    15    18    1
    30    18    19   am
    31    19    20    2
    32    19    22    1
    33    22    23   ar
    34    23    24   ar
    35    24    25   ar
    36    25    26   ar
    37    26    27   ar
    38    27    28   ar
    39    28    29   ar
    40    29    30   ar
    41    15    16    1
    42    16    17    1
    43    36    37   ar
    44    41    42   ar
    45    42    43   ar
    46    48    49    1
    47    49    50    1
    48    50    51    1
    49    50    52    1
    50    52    46    1
    51    43    38   ar
    52    37    32   ar
    53     7     1   ar
    54    17    12    1
    55    30    22   ar
    56    29    24   ar
    57    10    11    1
    58    18    21    1
    59    52    53    1
@<TRIPOS>MOLECULE
*****
 53 59 0 0 0
SMALL
GASTEIGER

@<TRIPOS>ATOM
      1 C          59.6321   88.2413    7.6857 C.ar    1  UNL1        0.2341
      2 N          59.5144   87.6785    9.0711 N.ar    1  UNL1       -0.2073
      3 C          59.3885   88.6010   10.2472 C.ar    1  UNL1        0.1316
      4 C          59.3802   90.0864   10.0378 C.ar    1  UNL1        0.1596
      5 F          59.2543   91.0089   11.2138 F       1  UNL1       -0.2025
      6 C          59.4979   90.6491    8.6523 C.ar    1  UNL1        0.0405
      7 C          59.6238   89.7265    7.4762 C.ar    1  UNL1        0.1090
      8 C          59.7414   90.2892    6.0908 C.2     1  UNL1        0.2504
      9 O          58.6008   90.1523    5.1263 O.2     1  UNL1       -0.2700
     10 N          60.9997   90.9889    5.6698 N.am    1  UNL1       -0.3024
     11 H          61.7484   91.0788    6.3029 H       1  UNL1        0.1497
     12 C          61.1174   91.5517    4.2844 C.3     1  UNL1        0.0720
     13 C          62.3277   91.2483    3.4519 C.3     1  UNL1        0.0213
     14 C          62.4453   91.8110    2.0664 C.3     1  UNL1        0.0213
     15 C          61.3526   92.6772    1.5135 C.3     1  UNL1        0.0720
     16 C          60.1422   92.9806    2.3459 C.3     1  UNL1        0.0213
     17 C          60.0246   92.4178    3.7314 C.3     1  UNL1        0.0213
     18 N          61.4703   93.2399    0.1280 N.am    1  UNL1       -0.3012
     19 C          60.4375   92.9061   -0.9073 C.2     1  UNL1        0.2653
     20 O          59.2870   92.0096   -0.5571 O.2     1  UNL1       -0.2684
     21 H          62.2254   93.8283   -0.1018 H       1  UNL1        0.1497
     22 C          60.5551   93.4689   -2.2927 C.ar    1  UNL1        0.1558
     23 C          61.8319   93.8300   -2.9922 C.ar    1  UNL1        0.0446
     24 C          61.4825   94.3536   -4.3538 C.ar    1  UNL1        0.0846
     25 C          62.3308   94.8597   -5.4826 C.ar    1  UNL1        0.0193
     26 C          61.6862   95.3283   -6.7534 C.ar    1  UNL1        0.0031
     27 C          60.1935   95.2907   -6.8954 C.ar    1  UNL1        0.0207
     28 C          59.3452   94.7846   -5.7666 C.ar    1  UNL1        0.1004
     29 N          59.9897   94.3160   -4.4958 N.ar    1  UNL1       -0.2281
     30 N          59.4166   93.7692   -3.2220 N.ar    1  UNL1       -0.1604
     31 O          59.7580   87.3186    6.5096 O.3     1  UNL1       -0.4360
     32 C          62.1970   84.5458    7.9630 C.ar    1  UNL1        0.0030
     33 C          62.5145   83.7680    6.7203 C.ar    1  UNL1        0.0002
     34 C          61.9132   84.1738    5.4074 C.ar    1  UNL1        0.0031
     35 C          60.9943   85.3574    5.3372 C.ar    1  UNL1        0.0376
     36 C          60.6768   86.1351    6.5798 C.ar    1  UNL1        0.1472
     37 C          61.2781   85.7294    7.8927 C.ar    1  UNL1        0.0376
     38 C          64.0011   83.3285   11.9017 C.ar    1  UNL1       -0.0061
     39 C          64.4646   82.6787   10.6317 C.ar    1  UNL1       -0.0029
     40 C          63.8632   83.0845    9.3188 C.ar    1  UNL1       -0.0003
     41 C          62.7983   84.1401    9.2759 C.ar    1  UNL1        0.0001
     42 C          62.3348   84.7899   10.5459 C.ar    1  UNL1       -0.0003
     43 C          62.9362   84.3842   11.8588 C.ar    1  UNL1       -0.0029
     44 C          64.6024   82.9228   13.2146 C.3     1  UNL1        0.0992
     45 C          67.4942   86.4338   15.7266 C.3     1  UNL1        0.0186
     46 C          66.2022   85.6881   15.5691 C.3     1  UNL1        0.0702
     47 C          66.0482   84.6783   14.4707 C.3     1  UNL1        0.0882
     48 N          64.7563   83.9326   14.3131 N.3     1  UNL1       -0.2666
     49 C          63.6183   84.1967   15.2540 C.3     1  UNL1        0.0882
     50 C          63.7723   85.2065   16.3524 C.3     1  UNL1        0.0702
     51 C          62.6343   85.4706   17.2933 C.3     1  UNL1        0.0186
     52 N          65.0643   85.9522   16.5100 N.3     1  UNL1       -0.2974
     53 H          65.4068   85.7525   17.4497 H       1  UNL1        0.1232
@<TRIPOS>BOND
     1    46    45    1
     2    46    47    1
     3    47    48    1
     4    48    44    1
     5    44    38    1
     6    38    39   ar
     7    39    40   ar
     8    40    41   ar
     9    41    32    1
    10    32    33   ar
    11    33    34   ar
    12    34    35   ar
    13    35    36   ar
    14    36    31    1
    15    31     1    1
    16     1     2   ar
    17     2     3   ar
    18     3     4   ar
    19     4     5    1
    20     4     6   ar
    21     6     7   ar
    22     7     8    1
    23     8     9    2
    24     8    10   am
    25    12    10    1
    26    12    13    1
    27    13    14    1
    28    14    15    1
    29    15    18    1
    30    18    19   am
    31    19    20    2
    32    19    22    1
    33    22    23   ar
    34    23    24   ar
    35    24    25   ar
    36    25    26   ar
    37    26    27   ar
    38    27    28   ar
    39    28    29   ar
    40    29    30   ar
    41    15    16    1
    42    16    17    1
    43    36    37   ar
    44    41    42   ar
    45    42    43   ar
    46    48    49    1
    47    49    50    1
    48    50    51    1
    49    50    52    1
    50    52    46    1
    51    43    38   ar
    52    37    32   ar
    53     7     1   ar
    54    17    12    1
    55    30    22   ar
    56    29    24   ar
    57    10    11    1
    58    18    21    1
    59    52    53    1
@<TRIPOS>MOLECULE
*****
 53 59 0 0 0
SMALL
GASTEIGER

@<TRIPOS>ATOM
      1 C          59.6083   88.2325    7.7039 C.ar    1  UNL1        0.2341
      2 N          59.4684   87.6886    9.0947 N.ar    1  UNL1       -0.2073
      3 C          59.3551   88.6271   10.2593 C.ar    1  UNL1        0.1316
      4 C          59.3819   90.1098   10.0330 C.ar    1  UNL1        0.1596
      5 F          59.2686   91.0483   11.1976 F       1  UNL1       -0.2025
      6 C          59.5218   90.6538    8.6422 C.ar    1  UNL1        0.0405
      7 C          59.6351   89.7151    7.4776 C.ar    1  UNL1        0.1090
      8 C          59.7750   90.2591    6.0867 C.2     1  UNL1        0.2504
      9 O          58.6382   90.1374    5.1158 O.2     1  UNL1       -0.2700
     10 N          61.0520   90.9249    5.6668 N.am    1  UNL1       -0.3024
     11 H          61.7982   91.0048    6.3040 H       1  UNL1        0.1497
     12 C          61.1919   91.4689    4.2759 C.3     1  UNL1        0.0720
     13 C          60.1147   92.3385    3.6988 C.3     1  UNL1        0.0213
     14 C          60.2546   92.8825    2.3079 C.3     1  UNL1        0.0213
     15 C          61.4719   92.5569    1.4942 C.3     1  UNL1        0.0720
     16 C          62.5492   91.6871    2.0713 C.3     1  UNL1        0.0213
     17 C          62.4093   91.1431    3.4622 C.3     1  UNL1        0.0213
     18 N          61.6118   93.1009    0.1033 N.am    1  UNL1       -0.3012
     19 C          62.9001   93.7373   -0.3269 C.2     1  UNL1        0.2653
     20 O          64.0484   93.8298    0.6337 O.2     1  UNL1       -0.2684
     21 H          60.8581   93.0401   -0.5271 H       1  UNL1        0.1497
     22 C          63.0401   94.2813   -1.7178 C.ar    1  UNL1        0.1558
     23 C          62.0212   94.1736   -2.8134 C.ar    1  UNL1        0.0446
     24 C          62.5749   94.8542   -4.0300 C.ar    1  UNL1        0.0846
     25 C          62.0156   95.0611   -5.4063 C.ar    1  UNL1        0.0193
     26 C          62.8173   95.7964   -6.4389 C.ar    1  UNL1        0.0031
     27 C          64.1785   96.3249   -6.0953 C.ar    1  UNL1        0.0207
     28 C          64.7378   96.1180   -4.7189 C.ar    1  UNL1        0.1004
     29 N          63.9360   95.3827   -3.6863 N.ar    1  UNL1       -0.2281
     30 N          64.2235   95.0286   -2.2573 N.ar    1  UNL1       -0.1604
     31 O          59.7216   87.2939    6.5393 O.3     1  UNL1       -0.4360
     32 C          62.1839   84.5433    7.9956 C.ar    1  UNL1        0.0030
     33 C          62.5114   83.7695    6.7531 C.ar    1  UNL1        0.0002
     34 C          61.9088   84.1706    5.4392 C.ar    1  UNL1        0.0031
     35 C          60.9789   85.3453    5.3679 C.ar    1  UNL1        0.0376
     36 C          60.6515   86.1191    6.6105 C.ar    1  UNL1        0.1472
     37 C          61.2539   85.7181    7.9243 C.ar    1  UNL1        0.0376
     38 C          63.9913   83.3404   11.9372 C.ar    1  UNL1       -0.0061
     39 C          62.9342   84.4035   11.8902 C.ar    1  UNL1       -0.0029
     40 C          62.3317   84.8045   10.5763 C.ar    1  UNL1       -0.0003
     41 C          62.7864   84.1423    9.3095 C.ar    1  UNL1        0.0001
     42 C          63.8435   83.0792    9.3565 C.ar    1  UNL1       -0.0003
     43 C          64.4460   82.6783   10.6703 C.ar    1  UNL1       -0.0029
     44 C          64.5938   82.9394   13.2511 C.3     1  UNL1        0.0992
     45 C          62.6373   85.5055   17.3238 C.3     1  UNL1        0.0186
     46 C          63.7729   85.2369   16.3812 C.3     1  UNL1        0.0702
     47 C          63.6156   84.2225   15.2874 C.3     1  UNL1        0.0882
     48 N          64.7511   83.9538   14.3448 N.3     1  UNL1       -0.2666
     49 C          66.0438   84.6995   14.4959 C.3     1  UNL1        0.0882
     50 C          66.2011   85.7139   15.5897 C.3     1  UNL1        0.0702
     51 C          67.4937   86.4596   15.7408 C.3     1  UNL1        0.0186
     52 N          65.0655   85.9826   16.5323 N.3     1  UNL1       -0.2974
     53 H          64.8442   86.9750   16.4514 H       1  UNL1        0.1232
@<TRIPOS>BOND
     1    46    45    1
     2    46    47    1
     3    47    48    1
     4    48    44    1
     5    44    38    1
     6    38    39   ar
     7    39    40   ar
     8    40    41   ar
     9    41    32    1
    10    32    33   ar
    11    33    34   ar
    12    34    35   ar
    13    35    36   ar
    14    36    31    1
    15    31     1    1
    16     1     2   ar
    17     2     3   ar
    18     3     4   ar
    19     4     5    1
    20     4     6   ar
    21     6     7   ar
    22     7     8    1
    23     8     9    2
    24     8    10   am
    25    12    10    1
    26    12    13    1
    27    13    14    1
    28    14    15    1
    29    15    18    1
    30    18    19   am
    31    19    20    2
    32    19    22    1
    33    22    23   ar
    34    23    24   ar
    35    24    25   ar
    36    25    26   ar
    37    26    27   ar
    38    27    28   ar
    39    28    29   ar
    40    29    30   ar
    41    15    16    1
    42    16    17    1
    43    36    37   ar
    44    41    42   ar
    45    42    43   ar
    46    48    49    1
    47    49    50    1
    48    50    51    1
    49    50    52    1
    50    52    46    1
    51    43    38   ar
    52    37    32   ar
    53     7     1   ar
    54    17    12    1
    55    30    22   ar
    56    29    24   ar
    57    10    11    1
    58    18    21    1
    59    52    53    1
@<TRIPOS>MOLECULE
*****
 53 59 0 0 0
SMALL
GASTEIGER

@<TRIPOS>ATOM
      1 C          59.8999   87.3045    7.2812 C.ar    1  UNL1        0.2341
      2 N          58.9957   86.5865    6.3236 N.ar    1  UNL1       -0.2073
      3 C          59.2733   85.1586    5.9574 C.ar    1  UNL1        0.1316
      4 C          60.4550   84.4487    6.5488 C.ar    1  UNL1        0.1596
      5 F          60.7325   83.0209    6.1825 F       1  UNL1       -0.2025
      6 C          61.3591   85.1667    7.5064 C.ar    1  UNL1        0.0405
      7 C          61.0815   86.5947    7.8726 C.ar    1  UNL1        0.1090
      8 C          61.9857   87.3127    8.8302 C.2     1  UNL1        0.2504
      9 O          63.4446   86.9686    8.8855 O.2     1  UNL1       -0.2700
     10 N          61.4308   88.3748    9.7325 N.am    1  UNL1       -0.3024
     11 H          60.4732   88.6006    9.6962 H       1  UNL1        0.1497
     12 C          62.3349   89.0928   10.6901 C.3     1  UNL1        0.0720
     13 C          62.7743   88.4183   11.9558 C.3     1  UNL1        0.0213
     14 C          63.6784   89.1364   12.9134 C.3     1  UNL1        0.0213
     15 C          64.1432   90.5288   12.6053 C.3     1  UNL1        0.0720
     16 C          63.7038   91.2034   11.3396 C.3     1  UNL1        0.0213
     17 C          62.7997   90.4854   10.3820 C.3     1  UNL1        0.0213
     18 N          65.0473   91.2469   13.5629 N.am    1  UNL1       -0.3012
     19 C          66.3770   91.7612   13.0967 C.2     1  UNL1        0.2653
     20 O          66.8025   91.5575   11.6728 O.2     1  UNL1       -0.2684
     21 H          64.7680   91.3805   14.4975 H       1  UNL1        0.1497
     22 C          67.2811   92.4792   14.0543 C.ar    1  UNL1        0.1558
     23 C          68.3265   91.8455   14.9235 C.ar    1  UNL1        0.0446
     24 C          68.9901   92.9317   15.7172 C.ar    1  UNL1        0.0846
     25 C          70.0908   92.9010   16.7358 C.ar    1  UNL1        0.0193
     26 C          70.5560   94.1753   17.3758 C.ar    1  UNL1        0.0031
     27 C          69.9207   95.4802   16.9972 C.ar    1  UNL1        0.0207
     28 C          68.8200   95.5109   15.9786 C.ar    1  UNL1        0.1004
     29 N          68.3547   94.2366   15.3386 N.ar    1  UNL1       -0.2281
     30 N          67.2985   93.9570   14.3109 N.ar    1  UNL1       -0.1604
     31 O          59.6223   88.7324    7.6475 O.3     1  UNL1       -0.4360
     32 C          59.9640   91.2830    4.6263 C.ar    1  UNL1        0.0030
     33 C          58.5357   91.7052    4.4488 C.ar    1  UNL1        0.0002
     34 C          57.4695   91.1365    5.3376 C.ar    1  UNL1        0.0031
     35 C          57.8317   90.1456    6.4038 C.ar    1  UNL1        0.0376
     36 C          59.2601   89.7233    6.5813 C.ar    1  UNL1        0.1472
     37 C          60.3262   90.2920    5.6925 C.ar    1  UNL1        0.0376
     38 C          63.1626   92.9890    1.9601 C.ar    1  UNL1       -0.0061
     39 C          63.4422   91.7619    2.7761 C.ar    1  UNL1       -0.0029
     40 C          62.3759   91.1932    3.6648 C.ar    1  UNL1       -0.0003
     41 C          61.0302   91.8517    3.7375 C.ar    1  UNL1        0.0001
     42 C          60.7506   93.0789    2.9215 C.ar    1  UNL1       -0.0003
     43 C          61.8168   93.6475    2.0328 C.ar    1  UNL1       -0.0029
     44 C          64.2287   93.5577    1.0713 C.3     1  UNL1        0.0992
     45 C          60.9938   93.6628   -2.9936 C.3     1  UNL1        0.0186
     46 C          62.2561   94.1217   -2.3258 C.3     1  UNL1        0.0702
     47 C          62.6113   93.6103   -0.9611 C.3     1  UNL1        0.0882
     48 N          63.8736   94.0691   -0.2933 N.3     1  UNL1       -0.2666
     49 C          64.7808   95.0394   -0.9902 C.3     1  UNL1        0.0882
     50 C          64.4257   95.5508   -2.3549 C.3     1  UNL1        0.0702
     51 C          65.3328   96.5210   -3.0518 C.3     1  UNL1        0.0186
     52 N          63.1633   95.0919   -3.0227 N.3     1  UNL1       -0.2974
     53 H          63.4375   94.6578   -3.9040 H       1  UNL1        0.1232
@<TRIPOS>BOND
     1    46    45    1
     2    46    47    1
     3    47    48    1
     4    48    44    1
     5    44    38    1
     6    38    39   ar
     7    39    40   ar
     8    40    41   ar
     9    41    32    1
    10    32    33   ar
    11    33    34   ar
    12    34    35   ar
    13    35    36   ar
    14    36    31    1
    15    31     1    1
    16     1     2   ar
    17     2     3   ar
    18     3     4   ar
    19     4     5    1
    20     4     6   ar
    21     6     7   ar
    22     7     8    1
    23     8     9    2
    24     8    10   am
    25    12    10    1
    26    12    13    1
    27    13    14    1
    28    14    15    1
    29    15    18    1
    30    18    19   am
    31    19    20    2
    32    19    22    1
    33    22    23   ar
    34    23    24   ar
    35    24    25   ar
    36    25    26   ar
    37    26    27   ar
    38    27    28   ar
    39    28    29   ar
    40    29    30   ar
    41    15    16    1
    42    16    17    1
    43    36    37   ar
    44    41    42   ar
    45    42    43   ar
    46    48    49    1
    47    49    50    1
    48    50    51    1
    49    50    52    1
    50    52    46    1
    51    43    38   ar
    52    37    32   ar
    53     7     1   ar
    54    17    12    1
    55    30    22   ar
    56    29    24   ar
    57    10    11    1
    58    18    21    1
    59    52    53    1
