@<TRIPOS>MOLECULE
*****
 19 21 0 0 0
SMALL
GASTEIGER

@<TRIPOS>ATOM
      1 C          65.9721   92.0419   13.4416 C.2     1  UNL1        0.1223
      2 C          65.7078   91.0277   14.5146 C.2     1  UNL1        0.0343
      3 C          64.5285   90.1076   14.4028 C.2     1  UNL1        0.0232
      4 C          63.6134   90.2018   13.2180 C.2     1  UNL1        0.0975
      5 N          62.3817   89.4349   12.8376 N.2     1  UNL1       -0.2200
      6 C          61.8847   89.9752   11.5295 C.2     1  UNL1        0.1901
      7 N          62.8093   91.0760   11.1014 N.2     1  UNL1       -0.2236
      8 C          63.8777   91.2160   12.1450 C.2     1  UNL1        0.0863
      9 C          65.0571   92.1361   12.2568 C.3     1  UNL1        0.1112
     10 C          67.5717   93.4831   14.8958 C.3     1  UNL1        0.2520
     11 O          67.1515   92.9620   13.5534 O.2     1  UNL1       -0.4753
     12 S          60.6754   89.4983   10.7809 S.3     1  UNL1       -0.0692
     13 C          60.2251   88.0736   10.9130 C.3     1  UNL1        0.1107
     14 C          61.1669   86.9553   10.5779 C.ar    1  UNL1        0.0703
     15 C          61.6677   86.7919    9.1734 C.ar    1  UNL1        0.0156
     16 C          62.6094   85.6736    8.8383 C.ar    1  UNL1        0.0028
     17 C          63.0504   84.7185    9.9076 C.ar    1  UNL1        0.0207
     18 C          62.5496   84.8818   11.3121 C.ar    1  UNL1        0.0985
     19 N          61.6078   86.0003   11.6472 N.ar    1  UNL1       -0.2473
@<TRIPOS>BOND
     1    10    11    1
     2    11     1    1
     3     1     2    2
     4     2     3    1
     5     3     4    2
     6     4     5    1
     7     5     6    2
     8     6    12    1
     9    12    13    1
    10    13    14    1
    11    14    15   ar
    12    15    16   ar
    13    16    17   ar
    14    17    18   ar
    15    18    19   ar
    16     6     7    1
    17     7     8    2
    18     8     9    1
    19     9     1    1
    20     8     4    1
    21    19    14   ar
@<TRIPOS>MOLECULE
*****
 19 21 0 0 0
SMALL
GASTEIGER

@<TRIPOS>ATOM
      1 C          63.7233   83.2208   11.8127 C.2     1  UNL1        0.1223
      2 C          64.0860   83.1700   10.3581 C.2     1  UNL1        0.0343
      3 C          63.5079   84.1740    9.4054 C.2     1  UNL1        0.0232
      4 C          62.5671   85.2290    9.9073 C.2     1  UNL1        0.0975
      5 N          61.8451   86.3438    9.2103 N.2     1  UNL1       -0.2200
      6 C          61.0361   87.0837   10.2341 C.2     1  UNL1        0.1901
      7 N          61.2582   86.4262   11.5638 N.2     1  UNL1       -0.2236
      8 C          62.2043   85.2798   11.3618 C.2     1  UNL1        0.0863
      9 C          62.7825   84.2758   12.3145 C.3     1  UNL1        0.1112
     10 C          63.4382   81.1194   13.3136 C.3     1  UNL1        0.2520
     11 O          64.3014   82.2168   12.7654 O.2     1  UNL1       -0.4753
     12 S          60.1591   88.2725    9.9737 S.3     1  UNL1       -0.0692
     13 C          60.1833   89.4422   10.9125 C.3     1  UNL1        0.1107
     14 C          61.4925   89.9691   11.4207 C.ar    1  UNL1        0.0703
     15 C          62.4001   90.7339   10.5034 C.ar    1  UNL1        0.0156
     16 C          63.7093   91.2608   11.0116 C.ar    1  UNL1        0.0028
     17 C          64.1110   91.0230   12.4371 C.ar    1  UNL1        0.0207
     18 C          63.2034   90.2582   13.3544 C.ar    1  UNL1        0.0985
     19 N          61.8941   89.7312   12.8461 N.ar    1  UNL1       -0.2473
@<TRIPOS>BOND
     1    10    11    1
     2    11     1    1
     3     1     2    2
     4     2     3    1
     5     3     4    2
     6     4     5    1
     7     5     6    2
     8     6    12    1
     9    12    13    1
    10    13    14    1
    11    14    15   ar
    12    15    16   ar
    13    16    17   ar
    14    17    18   ar
    15    18    19   ar
    16     6     7    1
    17     7     8    2
    18     8     9    1
    19     9     1    1
    20     8     4    1
    21    19    14   ar
@<TRIPOS>MOLECULE
*****
 19 21 0 0 0
SMALL
GASTEIGER

@<TRIPOS>ATOM
      1 C          60.9718   86.4712    8.5631 C.2     1  UNL1        0.1223
      2 C          62.0060   85.5952    7.9206 C.2     1  UNL1        0.0343
      3 C          62.9528   84.8035    8.7731 C.2     1  UNL1        0.0232
      4 C          62.8653   84.8877   10.2681 C.2     1  UNL1        0.0975
      5 N          63.6566   84.2286   11.3586 N.2     1  UNL1       -0.2200
      6 C          63.1115   84.6972   12.6751 C.2     1  UNL1        0.1901
      7 N          61.9832   85.6460   12.3983 N.2     1  UNL1       -0.2236
      8 C          61.8310   85.7637   10.9106 C.2     1  UNL1        0.0863
      9 C          60.8843   86.5555   10.0581 C.3     1  UNL1        0.1112
     10 C          59.7354   88.6965    8.0439 C.3     1  UNL1        0.2520
     11 O          60.0250   87.2630    7.7106 O.2     1  UNL1       -0.4753
     12 S          63.6076   84.2887   14.0306 S.3     1  UNL1       -0.0692
     13 C          64.5700   85.1675   14.7732 C.3     1  UNL1        0.1107
     14 C          64.1059   86.4761   15.3408 C.ar    1  UNL1        0.0703
     15 C          64.4173   87.7569   14.6247 C.ar    1  UNL1        0.0156
     16 C          63.9533   89.0654   15.1924 C.ar    1  UNL1        0.0028
     17 C          63.1778   89.0933   16.4761 C.ar    1  UNL1        0.0207
     18 C          62.8665   87.8126   17.1922 C.ar    1  UNL1        0.0985
     19 N          63.3305   86.5040   16.6245 N.ar    1  UNL1       -0.2473
@<TRIPOS>BOND
     1    10    11    1
     2    11     1    1
     3     1     2    2
     4     2     3    1
     5     3     4    2
     6     4     5    1
     7     5     6    2
     8     6    12    1
     9    12    13    1
    10    13    14    1
    11    14    15   ar
    12    15    16   ar
    13    16    17   ar
    14    17    18   ar
    15    18    19   ar
    16     6     7    1
    17     7     8    2
    18     8     9    1
    19     9     1    1
    20     8     4    1
    21    19    14   ar
@<TRIPOS>MOLECULE
*****
 19 21 0 0 0
SMALL
GASTEIGER

@<TRIPOS>ATOM
      1 C          64.3424   90.7826   14.8796 C.2     1  UNL1        0.1223
      2 C          63.6440   90.8196   16.2066 C.2     1  UNL1        0.0343
      3 C          63.1963   89.5429   16.8543 C.2     1  UNL1        0.0232
      4 C          63.4468   88.2293   16.1751 C.2     1  UNL1        0.0975
      5 N          63.1227   86.8183   16.5678 N.2     1  UNL1       -0.2200
      6 C          63.6208   85.9093   15.4836 C.2     1  UNL1        0.1901
      7 N          64.2527   86.7584   14.4207 N.2     1  UNL1       -0.2236
      8 C          64.1452   88.1923   14.8481 C.2     1  UNL1        0.0863
      9 C          64.5929   89.4689   14.2004 C.3     1  UNL1        0.1112
     10 C          65.0946   92.0887   12.7634 C.3     1  UNL1        0.2520
     11 O          64.7902   92.0593   14.2319 O.2     1  UNL1       -0.4753
     12 S          63.5069   84.4137   15.4654 S.3     1  UNL1       -0.0692
     13 C          62.4864   83.7498   14.5891 C.3     1  UNL1        0.1107
     14 C          62.8953   83.1727   13.2664 C.ar    1  UNL1        0.0703
     15 C          62.4142   81.8109   12.8613 C.ar    1  UNL1        0.0156
     16 C          62.8231   81.2337   11.5386 C.ar    1  UNL1        0.0028
     17 C          63.7132   82.0183   10.6208 C.ar    1  UNL1        0.0207
     18 C          64.1944   83.3801   11.0259 C.ar    1  UNL1        0.0985
     19 N          63.7854   83.9572   12.3487 N.ar    1  UNL1       -0.2473
@<TRIPOS>BOND
     1    10    11    1
     2    11     1    1
     3     1     2    2
     4     2     3    1
     5     3     4    2
     6     4     5    1
     7     5     6    2
     8     6    12    1
     9    12    13    1
    10    13    14    1
    11    14    15   ar
    12    15    16   ar
    13    16    17   ar
    14    17    18   ar
    15    18    19   ar
    16     6     7    1
    17     7     8    2
    18     8     9    1
    19     9     1    1
    20     8     4    1
    21    19    14   ar
@<TRIPOS>MOLECULE
*****
 19 21 0 0 0
SMALL
GASTEIGER

@<TRIPOS>ATOM
      1 C          63.3590   82.2454   13.7488 C.2     1  UNL1        0.1223
      2 C          63.9980   83.1935   14.7197 C.2     1  UNL1        0.0343
      3 C          63.9723   84.6696   14.4539 C.2     1  UNL1        0.0232
      4 C          63.3076   85.1975   13.2172 C.2     1  UNL1        0.0975
      5 N          63.1259   86.5908   12.6922 N.2     1  UNL1       -0.2200
      6 C          62.3746   86.5038   11.3968 C.2     1  UNL1        0.1901
      7 N          62.0919   85.0567   11.1212 N.2     1  UNL1       -0.2236
      8 C          62.6686   84.2493   12.2463 C.2     1  UNL1        0.0863
      9 C          62.6943   82.7733   12.5121 C.3     1  UNL1        0.1112
     10 C          62.3218   79.8842   13.4344 C.3     1  UNL1        0.2520
     11 O          63.3847   80.7693   14.0146 O.2     1  UNL1       -0.4753
     12 S          61.9759   87.6608   10.5293 S.3     1  UNL1       -0.0692
     13 C          61.6103   88.9750   11.1533 C.3     1  UNL1        0.1107
     14 C          62.6813   89.9709   11.4862 C.ar    1  UNL1        0.0703
     15 C          63.1903   90.9063   10.4298 C.ar    1  UNL1        0.0156
     16 C          64.2613   91.9023   10.7627 C.ar    1  UNL1        0.0028
     17 C          64.8234   91.9630   12.1522 C.ar    1  UNL1        0.0207
     18 C          64.3144   91.0276   13.2086 C.ar    1  UNL1        0.0985
     19 N          63.2433   90.0316   12.8756 N.ar    1  UNL1       -0.2473
@<TRIPOS>BOND
     1    10    11    1
     2    11     1    1
     3     1     2    2
     4     2     3    1
     5     3     4    2
     6     4     5    1
     7     5     6    2
     8     6    12    1
     9    12    13    1
    10    13    14    1
    11    14    15   ar
    12    15    16   ar
    13    16    17   ar
    14    17    18   ar
    15    18    19   ar
    16     6     7    1
    17     7     8    2
    18     8     9    1
    19     9     1    1
    20     8     4    1
    21    19    14   ar
@<TRIPOS>MOLECULE
*****
 19 21 0 0 0
SMALL
GASTEIGER

@<TRIPOS>ATOM
      1 C          63.4047   82.4873   13.8100 C.2     1  UNL1        0.1223
      2 C          62.9025   82.9436   12.4723 C.2     1  UNL1        0.0343
      3 C          62.8996   84.4041   12.1305 C.2     1  UNL1        0.0232
      4 C          63.3989   85.4084   13.1265 C.2     1  UNL1        0.0975
      5 N          63.5163   86.9028   13.0724 N.2     1  UNL1       -0.2200
      6 C          64.0910   87.3702   14.3767 C.2     1  UNL1        0.1901
      7 N          64.3289   86.1646   15.2369 N.2     1  UNL1       -0.2236
      8 C          63.9011   84.9522   14.4642 C.2     1  UNL1        0.0863
      9 C          63.9040   83.4916   14.8060 C.3     1  UNL1        0.1112
     10 C          62.3699   80.1169   13.5641 C.3     1  UNL1        0.2520
     11 O          63.4076   81.0268   14.1518 O.2     1  UNL1       -0.4753
     12 S          64.3777   88.7933   14.7544 S.3     1  UNL1       -0.0692
     13 C          63.9524   89.9101   13.8478 C.3     1  UNL1        0.1107
     14 C          64.8073   91.1355   13.7154 C.ar    1  UNL1        0.0703
     15 C          65.6319   91.6039   14.8776 C.ar    1  UNL1        0.0156
     16 C          66.4867   92.8293   14.7453 C.ar    1  UNL1        0.0028
     17 C          66.5170   93.5864   13.4506 C.ar    1  UNL1        0.0207
     18 C          65.6925   93.1180   12.2884 C.ar    1  UNL1        0.0985
     19 N          64.8376   91.8925   12.4208 N.ar    1  UNL1       -0.2473
@<TRIPOS>BOND
     1    10    11    1
     2    11     1    1
     3     1     2    2
     4     2     3    1
     5     3     4    2
     6     4     5    1
     7     5     6    2
     8     6    12    1
     9    12    13    1
    10    13    14    1
    11    14    15   ar
    12    15    16   ar
    13    16    17   ar
    14    17    18   ar
    15    18    19   ar
    16     6     7    1
    17     7     8    2
    18     8     9    1
    19     9     1    1
    20     8     4    1
    21    19    14   ar
@<TRIPOS>MOLECULE
*****
 19 21 0 0 0
SMALL
GASTEIGER

@<TRIPOS>ATOM
      1 C          63.5285   84.4356   13.3550 C.2     1  UNL1        0.1223
      2 C          64.3122   84.6344   14.6185 C.2     1  UNL1        0.0343
      3 C          64.6591   86.0203   15.0756 C.2     1  UNL1        0.0232
      4 C          64.2224   87.2073   14.2694 C.2     1  UNL1        0.0975
      5 N          64.4153   88.6815   14.4681 N.2     1  UNL1       -0.2200
      6 C          63.7508   89.3939   13.3275 C.2     1  UNL1        0.1901
      7 N          63.1472   88.3599   12.4238 N.2     1  UNL1       -0.2236
      8 C          63.4388   87.0085   13.0060 C.2     1  UNL1        0.0863
      9 C          63.0918   85.6227   12.5488 C.3     1  UNL1        0.1112
     10 C          63.6863   81.8603   13.6597 C.3     1  UNL1        0.2520
     11 O          63.1816   83.0497   12.8979 O.2     1  UNL1       -0.4753
     12 S          63.6989   90.8794   13.1259 S.3     1  UNL1       -0.0692
     13 C          64.9482   91.6330   12.7775 C.3     1  UNL1        0.1107
     14 C          65.9381   91.9806   13.8495 C.ar    1  UNL1        0.0703
     15 C          67.4068   91.9747   13.5447 C.ar    1  UNL1        0.0156
     16 C          68.3966   92.3223   14.6167 C.ar    1  UNL1        0.0028
     17 C          67.9178   92.6758   15.9936 C.ar    1  UNL1        0.0207
     18 C          66.4492   92.6817   16.2985 C.ar    1  UNL1        0.0985
     19 N          65.4593   92.3341   15.2263 N.ar    1  UNL1       -0.2473
@<TRIPOS>BOND
     1    10    11    1
     2    11     1    1
     3     1     2    2
     4     2     3    1
     5     3     4    2
     6     4     5    1
     7     5     6    2
     8     6    12    1
     9    12    13    1
    10    13    14    1
    11    14    15   ar
    12    15    16   ar
    13    16    17   ar
    14    17    18   ar
    15    18    19   ar
    16     6     7    1
    17     7     8    2
    18     8     9    1
    19     9     1    1
    20     8     4    1
    21    19    14   ar
@<TRIPOS>MOLECULE
*****
 19 21 0 0 0
SMALL
GASTEIGER

@<TRIPOS>ATOM
      1 C          66.4113   92.7606   14.3817 C.2     1  UNL1        0.1223
      2 C          65.8450   92.0826   15.5939 C.2     1  UNL1        0.0343
      3 C          64.6769   91.1518   15.4557 C.2     1  UNL1        0.0232
      4 C          64.0751   90.8990   14.1052 C.2     1  UNL1        0.0975
      5 N          62.9282   90.0397   13.6622 N.2     1  UNL1       -0.2200
      6 C          62.7858   90.1865   12.1762 C.2     1  UNL1        0.1901
      7 N          63.8446   91.1367   11.7008 N.2     1  UNL1       -0.2236
      8 C          64.6414   91.5770   12.8929 C.2     1  UNL1        0.0863
      9 C          65.8096   92.5078   13.0312 C.3     1  UNL1        0.1112
     10 C          68.5228   93.5443   15.6769 C.3     1  UNL1        0.2520
     11 O          67.5795   93.6913   14.5200 O.2     1  UNL1       -0.4753
     12 S          61.7639   89.5032   11.3167 S.3     1  UNL1       -0.0692
     13 C          62.1995   88.5154   10.2753 C.3     1  UNL1        0.1107
     14 C          61.1978   87.9494    9.3129 C.ar    1  UNL1        0.0703
     15 C          61.2605   86.5001    8.9310 C.ar    1  UNL1        0.0156
     16 C          60.2588   85.9341    7.9686 C.ar    1  UNL1        0.0028
     17 C          59.1945   86.8173    7.3880 C.ar    1  UNL1        0.0207
     18 C          59.1318   88.2666    7.7698 C.ar    1  UNL1        0.0985
     19 N          60.1335   88.8326    8.7323 N.ar    1  UNL1       -0.2473
@<TRIPOS>BOND
     1    10    11    1
     2    11     1    1
     3     1     2    2
     4     2     3    1
     5     3     4    2
     6     4     5    1
     7     5     6    2
     8     6    12    1
     9    12    13    1
    10    13    14    1
    11    14    15   ar
    12    15    16   ar
    13    16    17   ar
    14    17    18   ar
    15    18    19   ar
    16     6     7    1
    17     7     8    2
    18     8     9    1
    19     9     1    1
    20     8     4    1
    21    19    14   ar
@<TRIPOS>MOLECULE
*****
 19 21 0 0 0
SMALL
GASTEIGER

@<TRIPOS>ATOM
      1 C          60.4988   86.4820    8.2655 C.2     1  UNL1        0.1223
      2 C          61.5344   85.6000    7.6337 C.2     1  UNL1        0.0343
      3 C          62.6000   84.9692    8.4803 C.2     1  UNL1        0.0232
      4 C          62.6299   85.2205    9.9587 C.2     1  UNL1        0.0975
      5 N          63.5514   84.7396   11.0402 N.2     1  UNL1       -0.2200
      6 C          63.0852   85.3245   12.3404 C.2     1  UNL1        0.1901
      7 N          61.8756   86.1668   12.0626 N.2     1  UNL1       -0.2236
      8 C          61.5942   86.1026   10.5906 C.2     1  UNL1        0.0863
      9 C          60.5287   86.7333    9.7440 C.3     1  UNL1        0.1112
     10 C          59.2956   88.6058    7.3757 C.3     1  UNL1        0.2520
     11 O          59.4332   87.1128    7.4189 O.2     1  UNL1       -0.4753
     12 S          63.7177   85.1054   13.6829 S.3     1  UNL1       -0.0692
     13 C          64.2039   83.7399   14.0690 C.3     1  UNL1        0.1107
     14 C          63.3455   82.5373   13.8107 C.ar    1  UNL1        0.0703
     15 C          63.7638   81.5228   12.7881 C.ar    1  UNL1        0.0156
     16 C          62.9053   80.3202   12.5298 C.ar    1  UNL1        0.0028
     17 C          61.6284   80.1320   13.2942 C.ar    1  UNL1        0.0207
     18 C          61.2101   81.1465   14.3169 C.ar    1  UNL1        0.0985
     19 N          62.0687   82.3492   14.5751 N.ar    1  UNL1       -0.2473
@<TRIPOS>BOND
     1    10    11    1
     2    11     1    1
     3     1     2    2
     4     2     3    1
     5     3     4    2
     6     4     5    1
     7     5     6    2
     8     6    12    1
     9    12    13    1
    10    13    14    1
    11    14    15   ar
    12    15    16   ar
    13    16    17   ar
    14    17    18   ar
    15    18    19   ar
    16     6     7    1
    17     7     8    2
    18     8     9    1
    19     9     1    1
    20     8     4    1
    21    19    14   ar
