@<TRIPOS>MOLECULE
*****
 28 31 0 0 0
SMALL
GASTEIGER

@<TRIPOS>ATOM
      1 O          63.1841   91.3938   12.1307 O.2     1  UNL1       -0.2522
      2 C          63.2454   89.9360   12.4787 C.2     1  UNL1        0.3080
      3 N          64.0087   89.4852   13.6887 N.am    1  UNL1       -0.2681
      4 N          62.5434   88.9291   11.6166 N.am    1  UNL1       -0.2559
      5 C          62.6678   87.4993   12.0530 C.3     1  UNL1        0.1425
      6 C          62.0893   86.2723   11.4127 C.3     1  UNL1        0.2268
      7 O          61.2437   86.1721   10.1780 O.3     1  UNL1       -0.4739
      8 C          60.7675   87.2740    9.2784 C.ar    1  UNL1        0.1362
      9 C          59.9401   86.7391    8.1474 C.ar    1  UNL1        0.0366
     10 C          59.3647   87.6787    7.1294 C.ar    1  UNL1        0.0031
     11 C          59.6167   89.1530    7.2425 C.ar    1  UNL1        0.0000
     12 C          60.4441   89.6878    8.3737 C.ar    1  UNL1        0.0004
     13 C          61.0195   88.7483    9.3916 C.ar    1  UNL1        0.0317
     14 C          61.8099   89.4848   10.4322 C.3     1  UNL1        0.1248
     15 H          64.0489   88.5284   13.9170 H       1  UNL1        0.1564
     16 C          64.7107   90.4923   14.5508 C.ar    1  UNL1        0.0524
     17 C          64.0273   91.0456   15.7659 C.ar    1  UNL1        0.0148
     18 C          64.7293   92.0526   16.6279 C.ar    1  UNL1        0.0021
     19 C          66.1148   92.5062   16.2748 C.ar    1  UNL1        0.0115
     20 C          66.7982   91.9529   15.0597 C.ar    1  UNL1        0.0589
     21 CL         68.1837   92.4065   14.7066 Cl      1  UNL1       -0.0822
     22 C          66.0962   90.9459   14.1977 C.ar    1  UNL1        0.0261
     23 C          59.0413   90.0925    6.2246 C.ar    1  UNL1        0.0031
     24 C          57.5550   90.1843    6.0443 C.ar    1  UNL1        0.0207
     25 C          56.9796   91.1238    5.0264 C.ar    1  UNL1        0.0989
     26 N          57.8905   91.9716    4.1888 N.ar    1  UNL1       -0.2423
     27 C          59.3768   91.8799    4.3691 C.ar    1  UNL1        0.0989
     28 C          59.9522   90.9403    5.3871 C.ar    1  UNL1        0.0207
@<TRIPOS>BOND
     1     1     2    2
     2     2     3   am
     3     3    16    1
     4    16    17   ar
     5    17    18   ar
     6    18    19   ar
     7    19    20   ar
     8    20    21    1
     9    20    22   ar
    10     2     4   am
    11     4     5    1
    12     5     6    1
    13     6     7    1
    14     7     8    1
    15     8     9   ar
    16     9    10   ar
    17    10    11   ar
    18    11    23    1
    19    23    24   ar
    20    24    25   ar
    21    25    26   ar
    22    26    27   ar
    23    27    28   ar
    24    11    12   ar
    25    12    13   ar
    26    13    14    1
    27    22    16   ar
    28    14     4    1
    29    13     8   ar
    30    28    23   ar
    31     3    15    1
@<TRIPOS>MOLECULE
*****
 28 31 0 0 0
SMALL
GASTEIGER

@<TRIPOS>ATOM
      1 O          63.6241   84.8108   12.6705 O.2     1  UNL1       -0.2522
      2 C          63.1970   84.7253   14.1059 C.2     1  UNL1        0.3080
      3 N          62.7345   83.4165   14.6740 N.am    1  UNL1       -0.2681
      4 N          63.2326   85.9488   14.9730 N.am    1  UNL1       -0.2559
      5 C          62.7851   85.7542   16.3915 C.3     1  UNL1        0.1425
      6 C          62.7055   86.7678   17.4944 C.3     1  UNL1        0.2268
      7 O          63.0535   88.2261   17.4512 O.3     1  UNL1       -0.4739
      8 C          63.5671   89.0313   16.2945 C.ar    1  UNL1        0.1362
      9 C          63.7878   90.4642   16.6792 C.ar    1  UNL1        0.0366
     10 C          64.3010   91.4426   15.6646 C.ar    1  UNL1        0.0031
     11 C          64.5935   90.9881   14.2654 C.ar    1  UNL1        0.0000
     12 C          64.3728   89.5551   13.8807 C.ar    1  UNL1        0.0004
     13 C          63.8596   88.5767   14.8953 C.ar    1  UNL1        0.0317
     14 C          63.7107   87.2049   14.3072 C.3     1  UNL1        0.1248
     15 H          62.4542   83.3604   15.6161 H       1  UNL1        0.1564
     16 C          62.6990   82.1930   13.8068 C.ar    1  UNL1        0.0524
     17 C          62.2763   80.8754   14.3857 C.ar    1  UNL1        0.0148
     18 C          62.2408   79.6520   13.5184 C.ar    1  UNL1        0.0021
     19 C          62.6280   79.7463   12.0723 C.ar    1  UNL1        0.0115
     20 C          63.0506   81.0640   11.4935 C.ar    1  UNL1        0.0589
     21 CL         63.4378   81.1582   10.0473 Cl      1  UNL1       -0.0822
     22 C          63.0861   82.2873   12.3607 C.ar    1  UNL1        0.0261
     23 C          65.1067   91.9665   13.2508 C.ar    1  UNL1        0.0031
     24 C          66.0350   93.0667   13.6725 C.ar    1  UNL1        0.0207
     25 C          66.5482   94.0451   12.6579 C.ar    1  UNL1        0.0989
     26 N          66.1331   93.9233   11.2216 N.ar    1  UNL1       -0.2423
     27 C          65.2048   92.8231   10.7999 C.ar    1  UNL1        0.0989
     28 C          64.6916   91.8447   11.8146 C.ar    1  UNL1        0.0207
@<TRIPOS>BOND
     1     1     2    2
     2     2     3   am
     3     3    16    1
     4    16    17   ar
     5    17    18   ar
     6    18    19   ar
     7    19    20   ar
     8    20    21    1
     9    20    22   ar
    10     2     4   am
    11     4     5    1
    12     5     6    1
    13     6     7    1
    14     7     8    1
    15     8     9   ar
    16     9    10   ar
    17    10    11   ar
    18    11    23    1
    19    23    24   ar
    20    24    25   ar
    21    25    26   ar
    22    26    27   ar
    23    27    28   ar
    24    11    12   ar
    25    12    13   ar
    26    13    14    1
    27    22    16   ar
    28    14     4    1
    29    13     8   ar
    30    28    23   ar
    31     3    15    1
@<TRIPOS>MOLECULE
*****
 28 31 0 0 0
SMALL
GASTEIGER

@<TRIPOS>ATOM
      1 O          63.6060   84.5249   13.4999 O.2     1  UNL1       -0.2522
      2 C          62.8396   84.7888   12.2378 C.2     1  UNL1        0.3080
      3 N          62.2113   83.6505   11.4900 N.am    1  UNL1       -0.2681
      4 N          62.7016   86.1911   11.7235 N.am    1  UNL1       -0.2559
      5 C          61.9162   86.3446   10.4547 C.3     1  UNL1        0.1425
      6 C          61.6024   87.5995    9.6951 C.3     1  UNL1        0.2268
      7 O          61.9966   89.0105   10.0165 O.3     1  UNL1       -0.4739
      8 C          62.8019   89.5155   11.1769 C.ar    1  UNL1        0.1362
      9 C          62.9676   91.0052   11.1221 C.ar    1  UNL1        0.0366
     10 C          63.7433   91.7136   12.1929 C.ar    1  UNL1        0.0031
     11 C          64.3533   90.9320   13.3186 C.ar    1  UNL1        0.0000
     12 C          64.1875   89.4422   13.3734 C.ar    1  UNL1        0.0004
     13 C          63.4119   88.7339   12.3026 C.ar    1  UNL1        0.0317
     14 C          63.3672   87.2544   12.5458 C.3     1  UNL1        0.1248
     15 H          61.7083   83.8237   10.6616 H       1  UNL1        0.1564
     16 C          62.3493   82.2481   12.0043 C.ar    1  UNL1        0.0524
     17 C          62.2669   81.9781   13.4775 C.ar    1  UNL1        0.0148
     18 C          62.4049   80.5758   13.9917 C.ar    1  UNL1        0.0021
     19 C          62.6254   79.4435   13.0329 C.ar    1  UNL1        0.0115
     20 C          62.7078   79.7136   11.5598 C.ar    1  UNL1        0.0589
     21 CL         62.9282   78.5813   10.6009 Cl      1  UNL1       -0.0822
     22 C          62.5697   81.1159   11.0455 C.ar    1  UNL1        0.0261
     23 C          65.1289   91.6402   14.3894 C.ar    1  UNL1        0.0031
     24 C          66.4480   92.2760   14.0640 C.ar    1  UNL1        0.0207
     25 C          67.2237   92.9842   15.1348 C.ar    1  UNL1        0.0989
     26 N          66.6803   93.0567   16.5311 N.ar    1  UNL1       -0.2423
     27 C          65.3612   92.4210   16.8565 C.ar    1  UNL1        0.0989
     28 C          64.5855   91.7127   15.7856 C.ar    1  UNL1        0.0207
@<TRIPOS>BOND
     1     1     2    2
     2     2     3   am
     3     3    16    1
     4    16    17   ar
     5    17    18   ar
     6    18    19   ar
     7    19    20   ar
     8    20    21    1
     9    20    22   ar
    10     2     4   am
    11     4     5    1
    12     5     6    1
    13     6     7    1
    14     7     8    1
    15     8     9   ar
    16     9    10   ar
    17    10    11   ar
    18    11    23    1
    19    23    24   ar
    20    24    25   ar
    21    25    26   ar
    22    26    27   ar
    23    27    28   ar
    24    11    12   ar
    25    12    13   ar
    26    13    14    1
    27    22    16   ar
    28    14     4    1
    29    13     8   ar
    30    28    23   ar
    31     3    15    1
@<TRIPOS>MOLECULE
*****
 28 31 0 0 0
SMALL
GASTEIGER

@<TRIPOS>ATOM
      1 O          45.6585   73.2004   15.8599 O.2     1  UNL1       -0.2522
      2 C          45.0614   72.3984   16.9781 C.2     1  UNL1        0.3080
      3 N          44.7831   70.9369   16.7873 N.am    1  UNL1       -0.2681
      4 N          44.7427   73.0580   18.2870 N.am    1  UNL1       -0.2559
      5 C          44.1490   72.1666   19.3374 C.3     1  UNL1        0.1425
      6 C          43.7257   72.5189   20.7327 C.3     1  UNL1        0.2268
      7 O          43.7916   73.8493   21.4222 O.3     1  UNL1       -0.4739
      8 C          44.2971   75.1562   20.8868 C.ar    1  UNL1        0.1362
      9 C          44.1850   76.2475   21.9097 C.ar    1  UNL1        0.0366
     10 C          44.6373   77.6382   21.5754 C.ar    1  UNL1        0.0031
     11 C          45.2016   77.9373   20.2182 C.ar    1  UNL1        0.0000
     12 C          45.3137   76.8459   19.1953 C.ar    1  UNL1        0.0004
     13 C          44.8614   75.4553   19.5296 C.ar    1  UNL1        0.0317
     14 C          45.0597   74.5215   18.3726 C.3     1  UNL1        0.1248
     15 H          44.3912   70.4105   17.5212 H       1  UNL1        0.1564
     16 C          45.1018   70.2773   15.4783 C.ar    1  UNL1        0.0524
     17 C          46.3143   69.4029   15.3547 C.ar    1  UNL1        0.0148
     18 C          46.6330   68.7434   14.0457 C.ar    1  UNL1        0.0021
     19 C          45.7392   68.9582   12.8604 C.ar    1  UNL1        0.0115
     20 C          44.5268   69.8326   12.9840 C.ar    1  UNL1        0.0589
     21 CL         43.6330   70.0474   11.7986 Cl      1  UNL1       -0.0822
     22 C          44.2081   70.4921   14.2930 C.ar    1  UNL1        0.0261
     23 C          45.6539   79.3279   19.8839 C.ar    1  UNL1        0.0031
     24 C          47.0422   79.5608   19.3657 C.ar    1  UNL1        0.0207
     25 C          47.4944   80.9513   19.0313 C.ar    1  UNL1        0.0989
     26 N          46.5585   82.1090   19.2152 N.ar    1  UNL1       -0.2423
     27 C          45.1702   81.8761   19.7334 C.ar    1  UNL1        0.0989
     28 C          44.7180   80.4855   20.0677 C.ar    1  UNL1        0.0207
@<TRIPOS>BOND
     1     1     2    2
     2     2     3   am
     3     3    16    1
     4    16    17   ar
     5    17    18   ar
     6    18    19   ar
     7    19    20   ar
     8    20    21    1
     9    20    22   ar
    10     2     4   am
    11     4     5    1
    12     5     6    1
    13     6     7    1
    14     7     8    1
    15     8     9   ar
    16     9    10   ar
    17    10    11   ar
    18    11    23    1
    19    23    24   ar
    20    24    25   ar
    21    25    26   ar
    22    26    27   ar
    23    27    28   ar
    24    11    12   ar
    25    12    13   ar
    26    13    14    1
    27    22    16   ar
    28    14     4    1
    29    13     8   ar
    30    28    23   ar
    31     3    15    1
@<TRIPOS>MOLECULE
*****
 28 31 0 0 0
SMALL
GASTEIGER

@<TRIPOS>ATOM
      1 O          64.0842   85.6748   12.9468 O.2     1  UNL1       -0.2522
      2 C          63.5837   85.8730   14.3469 C.2     1  UNL1        0.3080
      3 N          62.9895   84.7207   15.1012 N.am    1  UNL1       -0.2681
      4 N          63.6776   87.2237   14.9926 N.am    1  UNL1       -0.2559
      5 C          63.1488   87.3134   16.3935 C.3     1  UNL1        0.1425
      6 C          63.0996   88.5077   17.2999 C.3     1  UNL1        0.2268
      7 O          63.5670   89.9069   17.0292 O.3     1  UNL1       -0.4739
      8 C          64.1990   90.4578   15.7854 C.ar    1  UNL1        0.1362
      9 C          64.5171   91.9163   15.9321 C.ar    1  UNL1        0.0366
     10 C          65.1561   92.6623   14.7983 C.ar    1  UNL1        0.0031
     11 C          65.4768   91.9498   13.5179 C.ar    1  UNL1        0.0000
     12 C          65.1586   90.4913   13.3712 C.ar    1  UNL1        0.0004
     13 C          64.5197   89.7453   14.5049 C.ar    1  UNL1        0.0317
     14 C          64.2876   88.3060   14.1522 C.3     1  UNL1        0.1248
     15 H          62.6611   84.8509   16.0201 H       1  UNL1        0.1564
     16 C          62.8958   83.3700   14.4554 C.ar    1  UNL1        0.0524
     17 C          64.0526   82.8348   13.6648 C.ar    1  UNL1        0.0148
     18 C          63.9588   81.4841   13.0191 C.ar    1  UNL1        0.0021
     19 C          62.7081   80.6688   13.1640 C.ar    1  UNL1        0.0115
     20 C          61.5513   81.2041   13.9546 C.ar    1  UNL1        0.0589
     21 CL         60.3005   80.3887   14.0994 Cl      1  UNL1       -0.0822
     22 C          61.6451   82.5547   14.6003 C.ar    1  UNL1        0.0261
     23 C          66.1157   92.6958   12.3842 C.ar    1  UNL1        0.0031
     24 C          66.8836   91.9496   11.3337 C.ar    1  UNL1        0.0207
     25 C          67.5225   92.6956   10.2000 C.ar    1  UNL1        0.0989
     26 N          67.3935   94.1878   10.1168 N.ar    1  UNL1       -0.2423
     27 C          66.6256   94.9339   11.1673 C.ar    1  UNL1        0.0989
     28 C          65.9866   94.1879   12.3010 C.ar    1  UNL1        0.0207
@<TRIPOS>BOND
     1     1     2    2
     2     2     3   am
     3     3    16    1
     4    16    17   ar
     5    17    18   ar
     6    18    19   ar
     7    19    20   ar
     8    20    21    1
     9    20    22   ar
    10     2     4   am
    11     4     5    1
    12     5     6    1
    13     6     7    1
    14     7     8    1
    15     8     9   ar
    16     9    10   ar
    17    10    11   ar
    18    11    23    1
    19    23    24   ar
    20    24    25   ar
    21    25    26   ar
    22    26    27   ar
    23    27    28   ar
    24    11    12   ar
    25    12    13   ar
    26    13    14    1
    27    22    16   ar
    28    14     4    1
    29    13     8   ar
    30    28    23   ar
    31     3    15    1
@<TRIPOS>MOLECULE
*****
 28 31 0 0 0
SMALL
GASTEIGER

@<TRIPOS>ATOM
      1 O          63.9083   84.7020   11.8710 O.2     1  UNL1       -0.2522
      2 C          63.2897   84.3372   13.1879 C.2     1  UNL1        0.3080
      3 N          62.7796   82.9454   13.4170 N.am    1  UNL1       -0.2681
      4 N          63.1813   85.3643   14.2757 N.am    1  UNL1       -0.2559
      5 C          62.5471   84.8961   15.5519 C.3     1  UNL1        0.1425
      6 C          62.2963   85.6718   16.8112 C.3     1  UNL1        0.2268
      7 O          62.6178   87.1071   17.1051 O.3     1  UNL1       -0.4739
      8 C          63.2695   88.1213   16.2125 C.ar    1  UNL1        0.1362
      9 C          63.4066   89.4479   16.8991 C.ar    1  UNL1        0.0366
     10 C          64.0349   90.6039   16.1786 C.ar    1  UNL1        0.0031
     11 C          64.5260   90.4333   14.7716 C.ar    1  UNL1        0.0000
     12 C          64.3889   89.1066   14.0851 C.ar    1  UNL1        0.0004
     13 C          63.7606   87.9507   14.8055 C.ar    1  UNL1        0.0317
     14 C          63.7213   86.7237   13.9436 C.3     1  UNL1        0.1248
     15 H          62.3736   82.7060   14.2814 H       1  UNL1        0.1564
     16 C          62.8880   81.9183   12.3292 C.ar    1  UNL1        0.0524
     17 C          63.2787   82.3337   10.9418 C.ar    1  UNL1        0.0148
     18 C          63.3871   81.3065    9.8540 C.ar    1  UNL1        0.0021
     19 C          63.1049   79.8641   10.1536 C.ar    1  UNL1        0.0115
     20 C          62.7143   79.4488   11.5410 C.ar    1  UNL1        0.0589
     21 CL         62.4321   78.0063   11.8405 Cl      1  UNL1       -0.0822
     22 C          62.6059   80.4759   12.6287 C.ar    1  UNL1        0.0261
     23 C          65.1542   91.5892   14.0511 C.ar    1  UNL1        0.0031
     24 C          64.8371   91.8338   12.6056 C.ar    1  UNL1        0.0207
     25 C          65.4653   92.9897   11.8851 C.ar    1  UNL1        0.0989
     26 N          66.4107   93.9011   12.6102 N.ar    1  UNL1       -0.2423
     27 C          66.7278   93.6565   14.0557 C.ar    1  UNL1        0.0989
     28 C          66.0995   92.5005   14.7762 C.ar    1  UNL1        0.0207
@<TRIPOS>BOND
     1     1     2    2
     2     2     3   am
     3     3    16    1
     4    16    17   ar
     5    17    18   ar
     6    18    19   ar
     7    19    20   ar
     8    20    21    1
     9    20    22   ar
    10     2     4   am
    11     4     5    1
    12     5     6    1
    13     6     7    1
    14     7     8    1
    15     8     9   ar
    16     9    10   ar
    17    10    11   ar
    18    11    23    1
    19    23    24   ar
    20    24    25   ar
    21    25    26   ar
    22    26    27   ar
    23    27    28   ar
    24    11    12   ar
    25    12    13   ar
    26    13    14    1
    27    22    16   ar
    28    14     4    1
    29    13     8   ar
    30    28    23   ar
    31     3    15    1
