@<TRIPOS>MOLECULE
*****
 37 41 0 0 0
SMALL
GASTEIGER

@<TRIPOS>ATOM
      1 N          63.1582   90.8250   12.0034 N.am    1  UNL1       -0.2438
      2 C          63.6384   91.3957   10.7020 C.3     1  UNL1        0.1009
      3 C          64.8377   92.2962   10.6749 C.3     1  UNL1        0.0662
      4 C          65.5568   92.6260   11.9493 C.3     1  UNL1        0.1600
      5 O          65.0766   92.0554   13.2508 O.3     1  UNL1       -0.4374
      6 C          63.8773   91.1549   13.2779 C.2     1  UNL1        0.4051
      7 O          63.3971   90.5842   14.5793 O.2     1  UNL1       -0.2262
      8 C          66.3869   93.4053   10.9726 C.ar    1  UNL1        0.0138
      9 C          67.2778   92.6857   10.0039 C.ar    1  UNL1       -0.0010
     10 C          68.1079   93.4649    9.0272 C.ar    1  UNL1       -0.0002
     11 C          68.0469   94.9636    9.0193 C.ar    1  UNL1       -0.0000
     12 C          67.1560   95.6832    9.9881 C.ar    1  UNL1       -0.0002
     13 C          66.3260   94.9040   10.9648 C.ar    1  UNL1       -0.0010
     14 C          60.5959   90.4981   12.2817 C.3     1  UNL1        0.0265
     15 C          61.9589   89.9245   12.0305 C.3     1  UNL1        0.1011
     16 C          62.1226   88.4504   11.8064 C.ar    1  UNL1       -0.0042
     17 C          63.1088   87.6721   12.6259 C.ar    1  UNL1       -0.0027
     18 C          63.2725   86.1981   12.4018 C.ar    1  UNL1       -0.0003
     19 C          62.4501   85.5023   11.3580 C.ar    1  UNL1        0.0002
     20 C          61.4639   86.2805   10.5384 C.ar    1  UNL1       -0.0003
     21 C          61.3002   87.7545   10.7626 C.ar    1  UNL1       -0.0027
     22 C          62.6139   84.0281   11.1339 C.ar    1  UNL1        0.0062
     23 C          63.1906   83.5252    9.8438 C.ar    1  UNL1        0.0189
     24 C          63.3544   82.0510    9.6197 C.ar    1  UNL1        0.0782
     25 N          62.9414   81.0799   10.6856 N.ar    1  UNL1       -0.2960
     26 C          62.3646   81.5829   11.9758 C.ar    1  UNL1        0.2609
     27 O          61.9515   80.6118   13.0418 O.2     1  UNL1       -0.2670
     28 C          62.2008   83.0570   12.1999 C.ar    1  UNL1        0.0608
     29 C          63.1051   79.6058   10.4616 C.3     1  UNL1        0.0886
     30 C          63.5306   78.4643    9.5865 C.3     1  UNL1        0.0246
     31 C          62.9632   78.1942   10.9485 C.3     1  UNL1        0.0246
     32 C          66.5642   93.2265   12.8845 C.3     1  UNL1        0.0714
     33 C          67.1778   92.3870   13.9656 C.3     1  UNL1        0.0922
     34 C          66.4119   93.1584   14.9993 C.3     1  UNL1        0.0294
     35 C          67.9436   91.6157   12.9319 C.3     1  UNL1        0.0294
     36 O          67.7913   91.5476   15.0467 O.3     1  UNL1       -0.3866
     37 H          67.4566   91.8370   15.9099 H       1  UNL1        0.2102
@<TRIPOS>BOND
     1    15    14    1
     2    15    16    1
     3    16    17   ar
     4    17    18   ar
     5    18    19   ar
     6    19    22    1
     7    22    23   ar
     8    23    24   ar
     9    24    25   ar
    10    25    29    1
    11    29    30    1
    12    30    31    1
    13    25    26   ar
    14    26    27    2
    15    26    28   ar
    16    19    20   ar
    17    20    21   ar
    18    15     1    1
    19     1     2    1
    20     2     3    1
    21     3     4    1
    22     4    32    1
    23    32    33    1
    24    33    34    1
    25    33    35    1
    26    33    36    1
    27     4     8    1
    28     8     9   ar
    29     9    10   ar
    30    10    11   ar
    31    11    12   ar
    32    12    13   ar
    33     4     5    1
    34     5     6    1
    35     6     7    2
    36    21    16   ar
    37     6     1   am
    38    28    22   ar
    39    13     8   ar
    40    31    29    1
    41    36    37    1
@<TRIPOS>MOLECULE
*****
 37 41 0 0 0
SMALL
GASTEIGER

@<TRIPOS>ATOM
      1 N          63.5660   90.6195   12.1604 N.am    1  UNL1       -0.2438
      2 C          64.2593   90.5157   13.4865 C.3     1  UNL1        0.1009
      3 C          65.4946   91.3241   13.7522 C.3     1  UNL1        0.0662
      4 C          66.0366   92.2361   12.6919 C.3     1  UNL1        0.1600
      5 O          65.3433   92.3399   11.3658 O.3     1  UNL1       -0.4374
      6 C          64.1080   91.5316   11.1000 C.2     1  UNL1        0.4051
      7 O          63.4147   91.6354    9.7739 O.2     1  UNL1       -0.2262
      8 C          67.0391   92.4783   13.7812 C.ar    1  UNL1        0.0138
      9 C          68.4426   91.9693   13.6355 C.ar    1  UNL1       -0.0010
     10 C          69.4450   92.2115   14.7248 C.ar    1  UNL1       -0.0002
     11 C          69.0440   92.9628   15.9596 C.ar    1  UNL1       -0.0000
     12 C          67.6405   93.4718   16.1052 C.ar    1  UNL1       -0.0002
     13 C          66.6381   93.2296   15.0160 C.ar    1  UNL1       -0.0010
     14 C          60.9934   90.4867   11.8232 C.3     1  UNL1        0.0265
     15 C          62.3307   89.8112   11.8946 C.3     1  UNL1        0.1011
     16 C          62.4328   88.3273   11.7003 C.ar    1  UNL1       -0.0042
     17 C          61.8279   87.6865   10.4864 C.ar    1  UNL1       -0.0027
     18 C          61.9301   86.2027   10.2921 C.ar    1  UNL1       -0.0003
     19 C          62.6370   85.3596   11.3116 C.ar    1  UNL1        0.0002
     20 C          63.2419   86.0004   12.5255 C.ar    1  UNL1       -0.0003
     21 C          63.1398   87.4842   12.7198 C.ar    1  UNL1       -0.0027
     22 C          62.7391   83.8757   11.1173 C.ar    1  UNL1        0.0062
     23 C          63.2799   83.3231    9.8319 C.ar    1  UNL1        0.0189
     24 C          63.3820   81.8392    9.6376 C.ar    1  UNL1        0.0782
     25 N          62.9433   80.9080   10.7286 N.ar    1  UNL1       -0.2960
     26 C          62.4025   81.4607   12.0140 C.ar    1  UNL1        0.2609
     27 O          61.9637   80.5295   13.1050 O.2     1  UNL1       -0.2670
     28 C          62.3004   82.9445   12.2083 C.ar    1  UNL1        0.0608
     29 C          63.0453   79.4242   10.5343 C.3     1  UNL1        0.0886
     30 C          62.7460   78.0296   10.9986 C.3     1  UNL1        0.0246
     31 C          63.5215   78.2487    9.7334 C.3     1  UNL1        0.0246
     32 C          66.9268   93.2324   12.0098 C.3     1  UNL1        0.0714
     33 C          66.6400   93.6517   10.5985 C.3     1  UNL1        0.0922
     34 C          67.4605   92.5032   10.0906 C.3     1  UNL1        0.0294
     35 C          65.8196   94.8001   11.1064 C.3     1  UNL1        0.0294
     36 O          66.3533   94.0709    9.1872 O.3     1  UNL1       -0.3866
     37 H          66.7917   93.4610    8.5733 H       1  UNL1        0.2102
@<TRIPOS>BOND
     1    15    14    1
     2    15    16    1
     3    16    17   ar
     4    17    18   ar
     5    18    19   ar
     6    19    22    1
     7    22    23   ar
     8    23    24   ar
     9    24    25   ar
    10    25    29    1
    11    29    30    1
    12    30    31    1
    13    25    26   ar
    14    26    27    2
    15    26    28   ar
    16    19    20   ar
    17    20    21   ar
    18    15     1    1
    19     1     2    1
    20     2     3    1
    21     3     4    1
    22     4    32    1
    23    32    33    1
    24    33    34    1
    25    33    35    1
    26    33    36    1
    27     4     8    1
    28     8     9   ar
    29     9    10   ar
    30    10    11   ar
    31    11    12   ar
    32    12    13   ar
    33     4     5    1
    34     5     6    1
    35     6     7    2
    36    21    16   ar
    37     6     1   am
    38    28    22   ar
    39    13     8   ar
    40    31    29    1
    41    36    37    1
@<TRIPOS>MOLECULE
*****
 37 41 0 0 0
SMALL
GASTEIGER

@<TRIPOS>ATOM
      1 N          59.3290   91.0088    5.0724 N.am    1  UNL1       -0.2438
      2 C          60.7810   90.7583    4.7913 C.3     1  UNL1        0.1009
      3 C          61.5205   91.6369    3.8263 C.3     1  UNL1        0.0662
      4 C          60.8081   92.7658    3.1423 C.3     1  UNL1        0.1600
      5 O          59.3560   93.0163    3.4234 O.3     1  UNL1       -0.4374
      6 C          58.6165   92.1378    4.3884 C.2     1  UNL1        0.4051
      7 O          57.1645   92.3882    4.6695 O.2     1  UNL1       -0.2262
      8 C          62.1779   92.9269    2.5526 C.ar    1  UNL1        0.0138
      9 C          62.6567   94.2835    2.1278 C.ar    1  UNL1       -0.0010
     10 C          64.0265   94.4445    1.5380 C.ar    1  UNL1       -0.0002
     11 C          64.9173   93.2491    1.3731 C.ar    1  UNL1       -0.0000
     12 C          64.4385   91.8925    1.7979 C.ar    1  UNL1       -0.0002
     13 C          63.0687   91.7314    2.3877 C.ar    1  UNL1       -0.0010
     14 C          57.0972   90.0077    5.9481 C.3     1  UNL1        0.0265
     15 C          58.5895   90.1302    6.0374 C.3     1  UNL1        0.1011
     16 C          59.3423   89.3742    7.0918 C.ar    1  UNL1       -0.0042
     17 C          59.3685   87.8747    7.0649 C.ar    1  UNL1       -0.0027
     18 C          60.1214   87.1187    8.1192 C.ar    1  UNL1       -0.0003
     19 C          60.8479   87.8623    9.2006 C.ar    1  UNL1        0.0002
     20 C          60.8217   89.3617    9.2275 C.ar    1  UNL1       -0.0003
     21 C          60.0689   90.1177    8.1731 C.ar    1  UNL1       -0.0027
     22 C          61.6008   87.1062   10.2550 C.ar    1  UNL1        0.0062
     23 C          61.6303   85.6068   10.2257 C.ar    1  UNL1        0.0189
     24 C          62.3832   84.8508   11.2802 C.ar    1  UNL1        0.0782
     25 N          63.1064   85.5942   12.3637 N.ar    1  UNL1       -0.2960
     26 C          63.0769   87.0937   12.3929 C.ar    1  UNL1        0.2609
     27 O          63.8002   87.8371   13.4765 O.2     1  UNL1       -0.2670
     28 C          62.3241   87.8496   11.3385 C.ar    1  UNL1        0.0608
     29 C          63.8593   84.8382   13.4181 C.3     1  UNL1        0.0886
     30 C          63.8977   83.7782   14.4787 C.3     1  UNL1        0.0246
     31 C          65.1248   84.5889   14.1838 C.3     1  UNL1        0.0246
     32 C          60.5713   93.9508    2.2535 C.3     1  UNL1        0.0714
     33 C          59.6649   93.8274    1.0648 C.3     1  UNL1        0.0922
     34 C          59.4269   95.3082    1.0926 C.3     1  UNL1        0.0294
     35 C          59.9030   92.3468    1.0369 C.3     1  UNL1        0.0294
     36 O          58.7585   93.7042   -0.1240 O.3     1  UNL1       -0.3866
     37 H          58.4181   94.5804   -0.3632 H       1  UNL1        0.2102
@<TRIPOS>BOND
     1    15    14    1
     2    15    16    1
     3    16    17   ar
     4    17    18   ar
     5    18    19   ar
     6    19    22    1
     7    22    23   ar
     8    23    24   ar
     9    24    25   ar
    10    25    29    1
    11    29    30    1
    12    30    31    1
    13    25    26   ar
    14    26    27    2
    15    26    28   ar
    16    19    20   ar
    17    20    21   ar
    18    15     1    1
    19     1     2    1
    20     2     3    1
    21     3     4    1
    22     4    32    1
    23    32    33    1
    24    33    34    1
    25    33    35    1
    26    33    36    1
    27     4     8    1
    28     8     9   ar
    29     9    10   ar
    30    10    11   ar
    31    11    12   ar
    32    12    13   ar
    33     4     5    1
    34     5     6    1
    35     6     7    2
    36    21    16   ar
    37     6     1   am
    38    28    22   ar
    39    13     8   ar
    40    31    29    1
    41    36    37    1
@<TRIPOS>MOLECULE
*****
 37 41 0 0 0
SMALL
GASTEIGER

@<TRIPOS>ATOM
      1 N          72.4821   75.6639   14.6522 N.am    1  UNL1       -0.2438
      2 C          73.1892   74.7460   15.6047 C.3     1  UNL1        0.1009
      3 C          72.7644   73.3120   15.7192 C.3     1  UNL1        0.0662
      4 C          71.6325   72.7959   14.8810 C.3     1  UNL1        0.1600
      5 O          70.9254   73.7138   13.9284 O.3     1  UNL1       -0.4374
      6 C          71.3502   75.1479   13.8140 C.2     1  UNL1        0.4051
      7 O          70.6431   76.0658   12.8615 O.2     1  UNL1       -0.2262
      8 C          71.9895   71.5482   15.6333 C.ar    1  UNL1        0.0138
      9 C          73.2758   70.8358   15.3367 C.ar    1  UNL1       -0.0010
     10 C          73.6329   69.5881   16.0889 C.ar    1  UNL1       -0.0002
     11 C          72.7036   69.0529   17.1376 C.ar    1  UNL1       -0.0000
     12 C          71.4173   69.7652   17.4342 C.ar    1  UNL1       -0.0002
     13 C          71.0603   71.0129   16.6820 C.ar    1  UNL1       -0.0010
     14 C          73.3105   77.8608   15.7646 C.3     1  UNL1        0.0265
     15 C          72.9069   77.0980   14.5378 C.3     1  UNL1        0.1011
     16 C          72.9282   77.7692   13.1964 C.ar    1  UNL1       -0.0042
     17 C          73.4883   77.0486   12.0060 C.ar    1  UNL1       -0.0027
     18 C          73.5095   77.7198   10.6648 C.ar    1  UNL1       -0.0003
     19 C          72.9706   79.1115   10.5139 C.ar    1  UNL1        0.0002
     20 C          72.4105   79.8320   11.7043 C.ar    1  UNL1       -0.0003
     21 C          72.3893   79.1609   13.0456 C.ar    1  UNL1       -0.0027
     22 C          72.9919   79.7827    9.1726 C.ar    1  UNL1        0.0062
     23 C          73.6104   79.0878    7.9959 C.ar    1  UNL1        0.0189
     24 C          73.6316   79.7590    6.6546 C.ar    1  UNL1        0.0782
     25 N          73.0344   81.1251    6.4900 N.ar    1  UNL1       -0.2960
     26 C          72.4159   81.8200    7.6667 C.ar    1  UNL1        0.2609
     27 O          71.8186   83.1861    7.5021 O.2     1  UNL1       -0.2670
     28 C          72.3946   81.1488    9.0080 C.ar    1  UNL1        0.0608
     29 C          73.0556   81.7963    5.1487 C.3     1  UNL1        0.0886
     30 C          73.1919   81.7145    3.6572 C.3     1  UNL1        0.0246
     31 C          72.9561   83.0406    4.3171 C.3     1  UNL1        0.0246
     32 C          70.6246   71.8465   14.3041 C.3     1  UNL1        0.0714
     33 C          70.8834   71.1915   12.9797 C.3     1  UNL1        0.0922
     34 C          69.8587   70.1432   13.2979 C.3     1  UNL1        0.0294
     35 C          71.9080   72.2398   12.6616 C.3     1  UNL1        0.0294
     36 O          71.1421   70.5365   11.6554 O.3     1  UNL1       -0.3866
     37 H          70.5731   69.7562   11.5639 H       1  UNL1        0.2102
@<TRIPOS>BOND
     1    15    14    1
     2    15    16    1
     3    16    17   ar
     4    17    18   ar
     5    18    19   ar
     6    19    22    1
     7    22    23   ar
     8    23    24   ar
     9    24    25   ar
    10    25    29    1
    11    29    30    1
    12    30    31    1
    13    25    26   ar
    14    26    27    2
    15    26    28   ar
    16    19    20   ar
    17    20    21   ar
    18    15     1    1
    19     1     2    1
    20     2     3    1
    21     3     4    1
    22     4    32    1
    23    32    33    1
    24    33    34    1
    25    33    35    1
    26    33    36    1
    27     4     8    1
    28     8     9   ar
    29     9    10   ar
    30    10    11   ar
    31    11    12   ar
    32    12    13   ar
    33     4     5    1
    34     5     6    1
    35     6     7    2
    36    21    16   ar
    37     6     1   am
    38    28    22   ar
    39    13     8   ar
    40    31    29    1
    41    36    37    1
@<TRIPOS>MOLECULE
*****
 37 41 0 0 0
SMALL
GASTEIGER

@<TRIPOS>ATOM
      1 N          59.7506   88.7838    7.6660 N.am    1  UNL1       -0.2438
      2 C          60.2472   87.3978    7.3791 C.3     1  UNL1        0.1009
      3 C          61.1085   86.6874    8.3808 C.3     1  UNL1        0.0662
      4 C          61.4732   87.3629    9.6694 C.3     1  UNL1        0.1600
      5 O          60.9766   88.7490    9.9564 O.3     1  UNL1       -0.4374
      6 C          60.1152   89.4594    8.9547 C.2     1  UNL1        0.4051
      7 O          59.6186   90.8454    9.2416 O.2     1  UNL1       -0.2262
      8 C          62.1820   86.0536    9.8521 C.ar    1  UNL1        0.0138
      9 C          62.1154   85.3423   11.1710 C.ar    1  UNL1       -0.0010
     10 C          62.8242   84.0329   11.3537 C.ar    1  UNL1       -0.0002
     11 C          63.5995   83.4350   10.2173 C.ar    1  UNL1       -0.0000
     12 C          63.6662   84.1463    8.8984 C.ar    1  UNL1       -0.0002
     13 C          62.9574   85.4557    8.7158 C.ar    1  UNL1       -0.0010
     14 C          57.4016   89.3036    6.6852 C.3     1  UNL1        0.0265
     15 C          58.8893   89.4942    6.6643 C.3     1  UNL1        0.1011
     16 C          59.5157   90.3953    5.6417 C.ar    1  UNL1       -0.0042
     17 C          58.6937   91.4577    4.9741 C.ar    1  UNL1       -0.0027
     18 C          59.3202   92.3587    3.9516 C.ar    1  UNL1       -0.0003
     19 C          60.7686   92.1974    3.5966 C.ar    1  UNL1        0.0002
     20 C          61.5906   91.1350    4.2641 C.ar    1  UNL1       -0.0003
     21 C          60.9641   90.2340    5.2867 C.ar    1  UNL1       -0.0027
     22 C          61.3950   93.0985    2.5740 C.ar    1  UNL1        0.0062
     23 C          60.6105   94.2406    1.9996 C.ar    1  UNL1        0.0189
     24 C          61.2369   95.1418    0.9770 C.ar    1  UNL1        0.0782
     25 N          62.6479   94.9006    0.5288 N.ar    1  UNL1       -0.2960
     26 C          63.4325   93.7584    1.1032 C.ar    1  UNL1        0.2609
     27 O          64.8435   93.5173    0.6550 O.2     1  UNL1       -0.2670
     28 C          62.8060   92.8574    2.1257 C.ar    1  UNL1        0.0608
     29 C          63.2743   95.8017   -0.4938 C.3     1  UNL1        0.0886
     30 C          64.3991   96.6974   -0.9210 C.3     1  UNL1        0.0246
     31 C          63.2346   96.4666   -1.8378 C.3     1  UNL1        0.0246
     32 C          62.0840   87.5838   11.0216 C.3     1  UNL1        0.0714
     33 C          61.6599   88.7576   11.8535 C.3     1  UNL1        0.0922
     34 C          60.2712   88.1966   11.9371 C.3     1  UNL1        0.0294
     35 C          63.0485   89.3186   11.7699 C.3     1  UNL1        0.0294
     36 O          61.2357   89.9314   12.6854 O.3     1  UNL1       -0.3866
     37 H          60.2977   89.8424   12.9157 H       1  UNL1        0.2102
@<TRIPOS>BOND
     1    15    14    1
     2    15    16    1
     3    16    17   ar
     4    17    18   ar
     5    18    19   ar
     6    19    22    1
     7    22    23   ar
     8    23    24   ar
     9    24    25   ar
    10    25    29    1
    11    29    30    1
    12    30    31    1
    13    25    26   ar
    14    26    27    2
    15    26    28   ar
    16    19    20   ar
    17    20    21   ar
    18    15     1    1
    19     1     2    1
    20     2     3    1
    21     3     4    1
    22     4    32    1
    23    32    33    1
    24    33    34    1
    25    33    35    1
    26    33    36    1
    27     4     8    1
    28     8     9   ar
    29     9    10   ar
    30    10    11   ar
    31    11    12   ar
    32    12    13   ar
    33     4     5    1
    34     5     6    1
    35     6     7    2
    36    21    16   ar
    37     6     1   am
    38    28    22   ar
    39    13     8   ar
    40    31    29    1
    41    36    37    1
@<TRIPOS>MOLECULE
*****
 37 41 0 0 0
SMALL
GASTEIGER

@<TRIPOS>ATOM
      1 N          59.7931   89.2039    7.7533 N.am    1  UNL1       -0.2438
      2 C          60.5483   90.1841    8.6011 C.3     1  UNL1        0.1009
      3 C          61.3837   89.6966    9.7476 C.3     1  UNL1        0.0662
      4 C          61.4639   88.2289   10.0462 C.3     1  UNL1        0.1600
      5 O          60.7086   87.2486    9.1984 O.3     1  UNL1       -0.4374
      6 C          59.8733   87.7361    8.0519 C.2     1  UNL1        0.4051
      7 O          59.1181   86.7559    7.2041 O.2     1  UNL1       -0.2262
      8 C          62.3543   88.7639   11.1283 C.ar    1  UNL1        0.0138
      9 C          62.7690   90.2054   11.1140 C.ar    1  UNL1       -0.0010
     10 C          63.6595   90.7404   12.1961 C.ar    1  UNL1       -0.0002
     11 C          64.1352   89.8339   13.2924 C.ar    1  UNL1       -0.0000
     12 C          63.7205   88.3925   13.3067 C.ar    1  UNL1       -0.0002
     13 C          62.8301   87.8574   12.2247 C.ar    1  UNL1       -0.0010
     14 C          57.5089   89.3127    6.5201 C.3     1  UNL1        0.0265
     15 C          58.9577   89.6915    6.6068 C.3     1  UNL1        0.1011
     16 C          59.5712   90.5578    5.5469 C.ar    1  UNL1       -0.0042
     17 C          61.0115   90.3753    5.1699 C.ar    1  UNL1       -0.0027
     18 C          61.6248   91.2416    4.1101 C.ar    1  UNL1       -0.0003
     19 C          60.7979   92.2904    3.4273 C.ar    1  UNL1        0.0002
     20 C          59.3576   92.4729    3.8043 C.ar    1  UNL1       -0.0003
     21 C          58.7442   91.6066    4.8641 C.ar    1  UNL1       -0.0027
     22 C          61.4114   93.1568    2.3675 C.ar    1  UNL1        0.0062
     23 C          60.6520   94.3321    1.8271 C.ar    1  UNL1        0.0189
     24 C          61.2654   95.1984    0.7673 C.ar    1  UNL1        0.0782
     25 N          62.6383   94.8894    0.2478 N.ar    1  UNL1       -0.2960
     26 C          63.3977   93.7140    0.7883 C.ar    1  UNL1        0.2609
     27 O          64.7705   93.4050    0.2688 O.2     1  UNL1       -0.2670
     28 C          62.7842   92.8478    1.8480 C.ar    1  UNL1        0.0608
     29 C          63.2518   95.7557   -0.8119 C.3     1  UNL1        0.0886
     30 C          64.3054   96.7329   -1.2419 C.3     1  UNL1        0.0246
     31 C          63.2606   96.2789   -2.2177 C.3     1  UNL1        0.0246
     32 C          61.8533   86.9469   10.7208 C.3     1  UNL1        0.0714
     33 C          62.4586   85.8321    9.9203 C.3     1  UNL1        0.0922
     34 C          62.8886   86.8170    8.8738 C.3     1  UNL1        0.0294
     35 C          62.0286   84.8473   10.9668 C.3     1  UNL1        0.0294
     36 O          63.0640   84.7173    9.1198 O.3     1  UNL1       -0.3866
     37 H          63.4566   85.0775    8.3093 H       1  UNL1        0.2102
@<TRIPOS>BOND
     1    15    14    1
     2    15    16    1
     3    16    17   ar
     4    17    18   ar
     5    18    19   ar
     6    19    22    1
     7    22    23   ar
     8    23    24   ar
     9    24    25   ar
    10    25    29    1
    11    29    30    1
    12    30    31    1
    13    25    26   ar
    14    26    27    2
    15    26    28   ar
    16    19    20   ar
    17    20    21   ar
    18    15     1    1
    19     1     2    1
    20     2     3    1
    21     3     4    1
    22     4    32    1
    23    32    33    1
    24    33    34    1
    25    33    35    1
    26    33    36    1
    27     4     8    1
    28     8     9   ar
    29     9    10   ar
    30    10    11   ar
    31    11    12   ar
    32    12    13   ar
    33     4     5    1
    34     5     6    1
    35     6     7    2
    36    21    16   ar
    37     6     1   am
    38    28    22   ar
    39    13     8   ar
    40    31    29    1
    41    36    37    1
