@<TRIPOS>MOLECULE
*****
 39 43 0 0 0
SMALL
GASTEIGER

@<TRIPOS>ATOM
      1 C          62.7949   86.7004   12.5859 C.ar    1  UNL1        0.0502
      2 C          63.5310   87.3173   13.7381 C.ar    1  UNL1        0.0143
      3 C          64.0955   88.7013   13.6128 C.ar    1  UNL1       -0.0030
      4 C          63.9239   89.4685   12.3353 C.ar    1  UNL1       -0.0223
      5 C          63.1878   88.8516   11.1831 C.ar    1  UNL1       -0.0034
      6 C          62.6233   87.4676   11.3084 C.ar    1  UNL1        0.0089
      7 C          64.4884   90.8526   12.2100 C.3     1  UNL1        0.0257
      8 C          64.6685   91.4693   10.8546 C.3     1  UNL1        0.0259
      9 C          65.2330   92.8534   10.7293 C.3     1  UNL1        0.0940
     10 N          65.6175   93.6207   11.9595 N.am    1  UNL1       -0.2759
     11 C          66.1820   95.0048   11.8343 C.2     1  UNL1        0.2551
     12 O          66.5665   95.7721   13.0645 O.2     1  UNL1       -0.2697
     13 C          65.4374   93.0039   13.3150 C.3     1  UNL1        0.0940
     14 C          64.8729   91.6199   13.4402 C.3     1  UNL1        0.0259
     15 C          66.3620   95.6215   10.4789 C.ar    1  UNL1        0.1246
     16 C          67.7397   95.9312    9.9728 C.ar    1  UNL1        0.0171
     17 C          67.9197   96.5479    8.6173 C.ar    1  UNL1        0.0773
     18 C          66.7220   96.8549    7.7680 C.ar    1  UNL1        0.3018
     19 N          65.3444   96.5453    8.2741 N.ar    1  UNL1       -0.1518
     20 O          64.1467   96.8523    7.4248 O.co2   1  UNL1       -0.6187
     21 C          65.1643   95.9286    9.6295 C.ar    1  UNL1        0.3061
     22 C          61.8872   86.8506   10.1562 C.2     1  UNL1       -0.0253
     23 C          62.5611   85.8176    9.3024 C.2     1  UNL1       -0.0303
     24 C          61.8250   85.2007    8.1502 C.3     1  UNL1        0.0257
     25 C          60.4151   85.6167    7.8518 C.3     1  UNL1        0.0050
     26 C          59.7412   86.6496    8.7055 C.3     1  UNL1        0.0050
     27 C          60.4773   87.2666    9.8578 C.3     1  UNL1        0.0261
     28 C          63.1123   84.1831   13.1449 C.2     1  UNL1        0.2837
     29 O          64.5587   84.4339   13.4533 O.2     1  UNL1       -0.2665
     30 N          62.2304   85.3163   12.7112 N.am    1  UNL1       -0.2779
     31 H          61.2811   85.1517   12.5088 H       1  UNL1        0.1553
     32 C          61.0754   80.9469   13.8105 C.ar    1  UNL1        0.1469
     33 C          62.2830   80.3914   13.1154 C.ar    1  UNL1        0.1282
     34 N          63.1930   81.5361   12.7815 N.ar    1  UNL1       -0.2205
     35 C          62.5478   82.7990   13.2701 C.ar    1  UNL1        0.1958
     36 N          61.2390   82.4348   13.9061 N.ar    1  UNL1       -0.3257
     37 H          60.5997   83.0623   14.3146 H       1  UNL1        0.1682
     38 N          58.7423   79.3604   14.8304 N.1     1  UNL1       -0.1893
     39 C          59.9088   80.1536   14.3204 C.1     1  UNL1        0.1194
@<TRIPOS>UNITY_ATOM_ATTR
19 1
charge 1
20 1
charge -1
@<TRIPOS>BOND
     1    38    39    3
     2    39    32    1
     3    32    33   ar
     4    33    34   ar
     5    34    35   ar
     6    35    28    1
     7    28    29    2
     8    28    30   am
     9    30     1    1
    10     1     2   ar
    11     2     3   ar
    12     3     4   ar
    13     4     7    1
    14     7     8    1
    15     8     9    1
    16     9    10    1
    17    10    11   am
    18    11    12    2
    19    11    15    1
    20    15    16   ar
    21    16    17   ar
    22    17    18   ar
    23    18    19   ar
    24    19    20    1
    25    19    21   ar
    26    10    13    1
    27    13    14    1
    28     4     5   ar
    29     5     6   ar
    30     6    22    1
    31    22    23    2
    32    23    24    1
    33    24    25    1
    34    25    26    1
    35    26    27    1
    36    35    36   ar
    37    36    32   ar
    38     6     1   ar
    39    27    22    1
    40    14     7    1
    41    21    15   ar
    42    30    31    1
    43    36    37    1
@<TRIPOS>MOLECULE
*****
 39 43 0 0 0
SMALL
GASTEIGER

@<TRIPOS>ATOM
      1 C          60.6781   87.5088    9.7187 C.ar    1  UNL1        0.0502
      2 C          59.7981   87.0332    8.6009 C.ar    1  UNL1        0.0143
      3 C          59.5634   87.9095    7.4064 C.ar    1  UNL1       -0.0030
      4 C          60.2087   89.2614    7.3296 C.ar    1  UNL1       -0.0223
      5 C          61.0887   89.7370    8.4474 C.ar    1  UNL1       -0.0034
      6 C          61.3234   88.8607    9.6419 C.ar    1  UNL1        0.0089
      7 C          59.9740   90.1377    6.1350 C.3     1  UNL1        0.0257
      8 C          61.1366   90.7681    5.4272 C.3     1  UNL1        0.0259
      9 C          60.9019   91.6444    4.2326 C.3     1  UNL1        0.0940
     10 N          59.5046   91.8903    3.7458 N.am    1  UNL1       -0.2759
     11 C          59.2698   92.7666    2.5513 C.2     1  UNL1        0.2551
     12 O          57.8725   93.0126    2.0645 O.2     1  UNL1       -0.2697
     13 C          58.3419   91.2599    4.4537 C.3     1  UNL1        0.0940
     14 C          58.5767   90.3837    5.6482 C.3     1  UNL1        0.0259
     15 C          60.4324   93.3970    1.8435 C.ar    1  UNL1        0.1246
     16 C          61.2028   92.6139    0.8221 C.ar    1  UNL1        0.0171
     17 C          62.3655   93.2443    0.1144 C.ar    1  UNL1        0.0773
     18 C          62.7577   94.6577    0.4280 C.ar    1  UNL1        0.3018
     19 N          61.9872   95.4408    1.4494 N.ar    1  UNL1       -0.1518
     20 O          62.3794   96.8542    1.7630 O.co2   1  UNL1       -0.6187
     21 C          60.8246   94.8105    2.1571 C.ar    1  UNL1        0.3061
     22 C          62.2034   89.3363   10.7597 C.2     1  UNL1       -0.0253
     23 C          62.6145   90.7772   10.8295 C.2     1  UNL1       -0.0303
     24 C          63.4944   91.2528   11.9472 C.3     1  UNL1        0.0257
     25 C          63.9634   90.2874   12.9953 C.3     1  UNL1        0.0050
     26 C          63.5523   88.8466   12.9255 C.3     1  UNL1        0.0050
     27 C          62.6723   88.3710   11.8077 C.3     1  UNL1        0.0261
     28 C          61.9815   85.5807   10.8735 C.2     1  UNL1        0.2837
     29 O          62.8156   85.4053    9.6391 O.2     1  UNL1       -0.2665
     30 N          60.9128   86.6324   10.9133 N.am    1  UNL1       -0.2779
     31 H          60.3654   86.7476   11.7234 H       1  UNL1        0.1553
     32 C          62.6430   82.7596   13.4560 C.ar    1  UNL1        0.1469
     33 C          62.5120   83.9521   14.3565 C.ar    1  UNL1        0.1282
     34 N          62.2483   85.1540   13.4987 N.ar    1  UNL1       -0.2205
     35 C          62.2163   84.7044   12.0680 C.ar    1  UNL1        0.1958
     36 N          62.4602   83.2246   12.0416 N.ar    1  UNL1       -0.3257
     37 H          62.4943   82.6580   11.2372 H       1  UNL1        0.1682
     38 N          63.1767   79.9399   14.3301 N.1     1  UNL1       -0.1893
     39 C          62.9099   81.3497   13.8930 C.1     1  UNL1        0.1194
@<TRIPOS>UNITY_ATOM_ATTR
19 1
charge 1
20 1
charge -1
@<TRIPOS>BOND
     1    38    39    3
     2    39    32    1
     3    32    33   ar
     4    33    34   ar
     5    34    35   ar
     6    35    28    1
     7    28    29    2
     8    28    30   am
     9    30     1    1
    10     1     2   ar
    11     2     3   ar
    12     3     4   ar
    13     4     7    1
    14     7     8    1
    15     8     9    1
    16     9    10    1
    17    10    11   am
    18    11    12    2
    19    11    15    1
    20    15    16   ar
    21    16    17   ar
    22    17    18   ar
    23    18    19   ar
    24    19    20    1
    25    19    21   ar
    26    10    13    1
    27    13    14    1
    28     4     5   ar
    29     5     6   ar
    30     6    22    1
    31    22    23    2
    32    23    24    1
    33    24    25    1
    34    25    26    1
    35    26    27    1
    36    35    36   ar
    37    36    32   ar
    38     6     1   ar
    39    27    22    1
    40    14     7    1
    41    21    15   ar
    42    30    31    1
    43    36    37    1
