@<TRIPOS>MOLECULE
*****
 33 36 0 0 0
SMALL
GASTEIGER

@<TRIPOS>ATOM
      1 C          61.2903   88.2214   10.0382 C.ar    1  UNL1        0.0951
      2 C          60.4184   88.0939    8.8244 C.ar    1  UNL1        0.1454
      3 F          59.4205   89.1663    8.5018 F       1  UNL1       -0.2040
      4 C          60.5444   86.8940    7.9331 C.ar    1  UNL1        0.0312
      5 C          61.5423   85.8215    8.2557 C.ar    1  UNL1        0.0204
      6 C          62.4142   85.9490    9.4696 C.ar    1  UNL1        0.0924
      7 C          62.2882   87.1489   10.3609 C.ar    1  UNL1        0.1598
      8 F          63.1602   87.2763   11.5748 F       1  UNL1       -0.2026
      9 C          61.1643   89.4212   10.9295 C.2     1  UNL1        0.2036
     10 O          59.8435   89.7530   11.5584 O.2     1  UNL1       -0.2863
     11 C          63.3837   89.6799   16.3884 C.3     1  UNL1        0.0307
     12 C          63.6517   90.2602   15.0314 C.2     1  UNL1        0.0074
     13 C          64.7942   91.2120   14.8351 C.2     1  UNL1        0.2278
     14 N          65.0622   91.7923   13.4781 N.2     1  UNL1       -0.0314
     15 C          64.1878   91.4207   12.3175 C.2     1  UNL1        0.3720
     16 N          64.2078   91.8295   10.8744 N.2     1  UNL1       -0.0307
     17 C          63.0776   91.1302   10.1788 C.2     1  UNL1        0.2390
     18 C          62.3591   90.2893   11.1920 C.2     1  UNL1        0.0896
     19 C          63.0453   90.4689   12.5138 C.2     1  UNL1        0.0771
     20 C          62.7772   89.8886   13.8708 C.3     1  UNL1        0.0602
     21 N          63.4121   84.8766    9.7922 N.pl3   1  UNL1       -0.2127
     22 H          64.2421   84.8027    9.2679 H       1  UNL1        0.1738
     23 S          63.1454   83.9167   10.9136 S.O2    1  UNL1        0.0780
     24 O          61.7638   84.4800   11.0672 O.2     1  UNL1       -0.1498
     25 O          64.5271   83.3534   10.7600 O.2     1  UNL1       -0.1498
     26 C          62.8788   82.9568   12.0350 C.ar    1  UNL1        0.1797
     27 C          62.7113   83.4675   13.4354 C.ar    1  UNL1        0.1611
     28 F          62.8104   84.9380   13.7145 F       1  UNL1       -0.2027
     29 C          62.4447   82.5077   14.5569 C.ar    1  UNL1        0.0312
     30 C          62.3455   81.0372   14.2779 C.ar    1  UNL1        0.0047
     31 C          62.5130   80.5265   12.8775 C.ar    1  UNL1        0.0312
     32 C          62.7796   81.4863   11.7561 C.ar    1  UNL1        0.1611
     33 F          62.9471   80.9757   10.3557 F       1  UNL1       -0.2027
@<TRIPOS>BOND
     1    11    12    1
     2    12    13    2
     3    13    14    1
     4    14    15    2
     5    15    16    1
     6    16    17    2
     7    17    18    1
     8    18     9    1
     9     9    10    2
    10     9     1    1
    11     1     2   ar
    12     2     3    1
    13     2     4   ar
    14     4     5   ar
    15     5     6   ar
    16     6    21    1
    17    21    23    1
    18    23    24    2
    19    23    25    2
    20    23    26    1
    21    26    27   ar
    22    27    28    1
    23    27    29   ar
    24    29    30   ar
    25    30    31   ar
    26    31    32   ar
    27    32    33    1
    28     6     7   ar
    29     7     8    1
    30    18    19    2
    31    19    20    1
    32    20    12    1
    33    19    15    1
    34     7     1   ar
    35    32    26   ar
    36    21    22    1
@<TRIPOS>MOLECULE
*****
 33 36 0 0 0
SMALL
GASTEIGER

@<TRIPOS>ATOM
      1 C          65.5092   91.7661   13.3268 C.ar    1  UNL1        0.0951
      2 C          65.6990   90.7756   14.4370 C.ar    1  UNL1        0.1454
      3 F          66.9479   90.8099   15.2673 F       1  UNL1       -0.2040
      4 C          64.6402   89.7507   14.7171 C.ar    1  UNL1        0.0312
      5 C          63.3914   89.7163   13.8869 C.ar    1  UNL1        0.0204
      6 C          63.2015   90.7069   12.7766 C.ar    1  UNL1        0.0924
      7 C          64.2603   91.7318   12.4965 C.ar    1  UNL1        0.1598
      8 F          64.0704   92.7223   11.3862 F       1  UNL1       -0.2026
      9 C          66.5680   92.7910   13.0467 C.2     1  UNL1        0.2036
     10 O          66.9433   93.7892   14.1016 O.2     1  UNL1       -0.2863
     11 C          64.9707   96.8559    9.0823 C.3     1  UNL1        0.0307
     12 C          65.9406   95.7183    9.2057 C.2     1  UNL1        0.0074
     13 C          66.8521   95.3825    8.0628 C.2     1  UNL1        0.2278
     14 N          67.8219   94.2449    8.1862 N.2     1  UNL1       -0.0314
     15 C          67.8802   93.4431    9.4525 C.2     1  UNL1        0.3720
     16 N          68.7264   92.2744    9.8624 N.2     1  UNL1       -0.0307
     17 C          68.3379   91.8878   11.2587 C.2     1  UNL1        0.2390
     18 C          67.2515   92.8176   11.7118 C.2     1  UNL1        0.0896
     19 C          66.9687   93.7788   10.5954 C.2     1  UNL1        0.0771
     20 C          65.9989   94.9165   10.4720 C.3     1  UNL1        0.0602
     21 N          61.9526   90.6726   11.9463 N.pl3   1  UNL1       -0.2127
     22 H          61.3249   91.4306   11.9699 H       1  UNL1        0.1738
     23 S          61.6603   89.4833   11.0803 S.O2    1  UNL1        0.0780
     24 O          60.5444   89.0871   12.0009 O.2     1  UNL1       -0.1498
     25 O          62.7762   89.8795   10.1595 O.2     1  UNL1       -0.1498
     26 C          61.3680   88.2940   10.2141 C.ar    1  UNL1        0.1797
     27 C          60.4233   88.4236    9.0561 C.ar    1  UNL1        0.1611
     28 F          59.7710   89.7425    8.7643 F       1  UNL1       -0.2027
     29 C          60.1310   87.2344    8.1900 C.ar    1  UNL1        0.0312
     30 C          60.7833   85.9155    8.4818 C.ar    1  UNL1        0.0047
     31 C          61.7279   85.7859    9.6397 C.ar    1  UNL1        0.0312
     32 C          62.0202   86.9751   10.5059 C.ar    1  UNL1        0.1611
     33 F          62.9648   86.8456   11.6638 F       1  UNL1       -0.2027
@<TRIPOS>BOND
     1    11    12    1
     2    12    13    2
     3    13    14    1
     4    14    15    2
     5    15    16    1
     6    16    17    2
     7    17    18    1
     8    18     9    1
     9     9    10    2
    10     9     1    1
    11     1     2   ar
    12     2     3    1
    13     2     4   ar
    14     4     5   ar
    15     5     6   ar
    16     6    21    1
    17    21    23    1
    18    23    24    2
    19    23    25    2
    20    23    26    1
    21    26    27   ar
    22    27    28    1
    23    27    29   ar
    24    29    30   ar
    25    30    31   ar
    26    31    32   ar
    27    32    33    1
    28     6     7   ar
    29     7     8    1
    30    18    19    2
    31    19    20    1
    32    20    12    1
    33    19    15    1
    34     7     1   ar
    35    32    26   ar
    36    21    22    1
@<TRIPOS>MOLECULE
*****
 33 36 0 0 0
SMALL
GASTEIGER

@<TRIPOS>ATOM
      1 C          63.9650   88.3875   15.4236 C.ar    1  UNL1        0.0951
      2 C          63.0519   88.9360   16.4796 C.ar    1  UNL1        0.1454
      3 F          62.7811   90.4099   16.5451 F       1  UNL1       -0.2040
      4 C          62.4096   88.0107   17.4702 C.ar    1  UNL1        0.0312
      5 C          62.6804   86.5368   17.4048 C.ar    1  UNL1        0.0204
      6 C          63.5935   85.9882   16.3486 C.ar    1  UNL1        0.0924
      7 C          64.2359   86.9135   15.3580 C.ar    1  UNL1        0.1598
      8 F          65.1490   86.3649   14.3020 F       1  UNL1       -0.2026
      9 C          64.6073   89.3127   14.4330 C.2     1  UNL1        0.2036
     10 O          66.0087   89.7976   14.6589 O.2     1  UNL1       -0.2863
     11 C          61.9797   85.2498   11.0596 C.3     1  UNL1        0.0307
     12 C          62.1562   86.7387   11.1040 C.2     1  UNL1        0.0074
     13 C          61.5399   87.5990   10.0409 C.2     1  UNL1        0.2278
     14 N          61.7164   89.0879   10.0852 N.2     1  UNL1       -0.0314
     15 C          62.5092   89.7166   11.1926 C.2     1  UNL1        0.3720
     16 N          62.8510   91.1451   11.4965 N.2     1  UNL1       -0.0307
     17 C          63.6786   91.1677   12.7473 C.2     1  UNL1        0.2390
     18 C          63.8483   89.7532   13.2165 C.2     1  UNL1        0.0896
     19 C          63.1255   88.8563   12.2556 C.2     1  UNL1        0.0771
     20 C          62.9490   87.3674   12.2113 C.3     1  UNL1        0.0602
     21 N          63.8643   84.5143   16.2832 N.pl3   1  UNL1       -0.2127
     22 H          64.1699   84.0338   17.0863 H       1  UNL1        0.1738
     23 S          63.6696   83.7725   14.9941 S.O2    1  UNL1        0.0780
     24 O          62.5590   84.7096   14.6225 O.2     1  UNL1       -0.1498
     25 O          64.7803   82.8354   15.3656 O.2     1  UNL1       -0.1498
     26 C          63.4749   83.0306   13.7049 C.ar    1  UNL1        0.1797
     27 C          64.4073   83.2690   12.5543 C.ar    1  UNL1        0.1611
     28 F          65.5343   84.2492   12.6928 F       1  UNL1       -0.2027
     29 C          64.2127   82.5272   11.2652 C.ar    1  UNL1        0.0312
     30 C          63.0857   81.5470   11.1267 C.ar    1  UNL1        0.0047
     31 C          62.1534   81.3086   12.2773 C.ar    1  UNL1        0.0312
     32 C          62.3480   82.0504   13.5664 C.ar    1  UNL1        0.1611
     33 F          61.4157   81.8121   14.7170 F       1  UNL1       -0.2027
@<TRIPOS>BOND
     1    11    12    1
     2    12    13    2
     3    13    14    1
     4    14    15    2
     5    15    16    1
     6    16    17    2
     7    17    18    1
     8    18     9    1
     9     9    10    2
    10     9     1    1
    11     1     2   ar
    12     2     3    1
    13     2     4   ar
    14     4     5   ar
    15     5     6   ar
    16     6    21    1
    17    21    23    1
    18    23    24    2
    19    23    25    2
    20    23    26    1
    21    26    27   ar
    22    27    28    1
    23    27    29   ar
    24    29    30   ar
    25    30    31   ar
    26    31    32   ar
    27    32    33    1
    28     6     7   ar
    29     7     8    1
    30    18    19    2
    31    19    20    1
    32    20    12    1
    33    19    15    1
    34     7     1   ar
    35    32    26   ar
    36    21    22    1
@<TRIPOS>MOLECULE
*****
 33 36 0 0 0
SMALL
GASTEIGER

@<TRIPOS>ATOM
      1 C          62.0151   89.2149   11.6440 C.ar    1  UNL1        0.0951
      2 C          60.7898   89.6770   10.9126 C.ar    1  UNL1        0.1454
      3 F          60.2627   91.0638   11.1338 F       1  UNL1       -0.2040
      4 C          60.0915   88.7523    9.9601 C.ar    1  UNL1        0.0312
      5 C          60.6185   87.3654    9.7389 C.ar    1  UNL1        0.0204
      6 C          61.8439   86.9033   10.4704 C.ar    1  UNL1        0.0924
      7 C          62.5422   87.8280   11.4229 C.ar    1  UNL1        0.1598
      8 F          63.7675   87.3659   12.1543 F       1  UNL1       -0.2026
      9 C          62.7134   90.1396   12.5965 C.2     1  UNL1        0.2036
     10 O          62.4149   90.0691   14.0649 O.2     1  UNL1       -0.2863
     11 C          66.6123   92.5035   16.3385 C.3     1  UNL1        0.0307
     12 C          66.2528   92.5799   14.8842 C.2     1  UNL1        0.0074
     13 C          67.0218   93.4851   13.9682 C.2     1  UNL1        0.2278
     14 N          66.6624   93.5615   12.5139 N.2     1  UNL1       -0.0314
     15 C          65.5339   92.7328   11.9757 C.2     1  UNL1        0.3720
     16 N          64.9545   92.5994   10.5985 N.2     1  UNL1       -0.0307
     17 C          63.8274   91.6117   10.6635 C.2     1  UNL1        0.2390
     18 C          63.7102   91.1347   12.0808 C.2     1  UNL1        0.0896
     19 C          64.7649   91.8276   12.8917 C.2     1  UNL1        0.0771
     20 C          65.1244   91.7511   14.3460 C.3     1  UNL1        0.0602
     21 N          62.3709   85.5165   10.2493 N.pl3   1  UNL1       -0.2127
     22 H          62.4845   85.1733    9.3335 H       1  UNL1        0.1738
     23 S          62.7249   84.6526   11.4233 S.O2    1  UNL1        0.0780
     24 O          61.6322   85.2948   12.2254 O.2     1  UNL1       -0.1498
     25 O          63.8177   84.0103   10.6212 O.2     1  UNL1       -0.1498
     26 C          63.0790   83.7886   12.5973 C.ar    1  UNL1        0.1797
     27 C          62.7815   82.3188   12.5636 C.ar    1  UNL1        0.1611
     28 F          62.1301   81.7129   11.3558 F       1  UNL1       -0.2027
     29 C          63.1355   81.4548   13.7375 C.ar    1  UNL1        0.0312
     30 C          63.7870   82.0607   14.9453 C.ar    1  UNL1        0.0047
     31 C          64.0844   83.5305   14.9790 C.ar    1  UNL1        0.0312
     32 C          63.7304   84.3945   13.8051 C.ar    1  UNL1        0.1611
     33 F          64.0278   85.8643   13.8388 F       1  UNL1       -0.2027
@<TRIPOS>BOND
     1    11    12    1
     2    12    13    2
     3    13    14    1
     4    14    15    2
     5    15    16    1
     6    16    17    2
     7    17    18    1
     8    18     9    1
     9     9    10    2
    10     9     1    1
    11     1     2   ar
    12     2     3    1
    13     2     4   ar
    14     4     5   ar
    15     5     6   ar
    16     6    21    1
    17    21    23    1
    18    23    24    2
    19    23    25    2
    20    23    26    1
    21    26    27   ar
    22    27    28    1
    23    27    29   ar
    24    29    30   ar
    25    30    31   ar
    26    31    32   ar
    27    32    33    1
    28     6     7   ar
    29     7     8    1
    30    18    19    2
    31    19    20    1
    32    20    12    1
    33    19    15    1
    34     7     1   ar
    35    32    26   ar
    36    21    22    1
@<TRIPOS>MOLECULE
*****
 33 36 0 0 0
SMALL
GASTEIGER

@<TRIPOS>ATOM
      1 C          63.9965   84.5102   13.8937 C.ar    1  UNL1        0.0951
      2 C          63.6434   83.1184   14.3275 C.ar    1  UNL1        0.1454
      3 F          64.0426   82.6336   15.6898 F       1  UNL1       -0.2040
      4 C          62.8913   82.2114   13.3993 C.ar    1  UNL1        0.0312
      5 C          62.4922   82.6963   12.0370 C.ar    1  UNL1        0.0204
      6 C          62.8453   84.0881   11.6032 C.ar    1  UNL1        0.0924
      7 C          63.5974   84.9951   12.5314 C.ar    1  UNL1        0.1598
      8 F          63.9504   86.3868   12.0975 F       1  UNL1       -0.2026
      9 C          64.7486   85.4171   14.8220 C.2     1  UNL1        0.2036
     10 O          66.2450   85.3420   14.8949 O.2     1  UNL1       -0.2863
     11 C          65.1432   91.1728   13.5940 C.3     1  UNL1        0.0307
     12 C          64.4702   90.2735   14.5881 C.2     1  UNL1        0.0074
     13 C          63.5987   90.8589   15.6594 C.2     1  UNL1        0.2278
     14 N          62.9256   89.9595   16.6535 N.2     1  UNL1       -0.0314
     15 C          63.1241   88.4747   16.5762 C.2     1  UNL1        0.3720
     16 N          62.5943   87.3465   17.4107 N.2     1  UNL1       -0.0307
     17 C          63.1383   86.0638   16.8551 C.2     1  UNL1        0.2390
     18 C          64.0044   86.3992   15.6773 C.2     1  UNL1        0.0896
     19 C          63.9956   87.8893   15.5049 C.2     1  UNL1        0.0771
     20 C          64.6686   88.7887   14.5109 C.3     1  UNL1        0.0602
     21 N          62.4461   84.5729   10.2409 N.pl3   1  UNL1       -0.2127
     22 H          62.5163   83.9718    9.4644 H       1  UNL1        0.1738
     23 S          61.9401   85.9736   10.0618 S.O2    1  UNL1        0.0780
     24 O          61.0736   85.8159   11.2759 O.2     1  UNL1       -0.1498
     25 O          62.8067   86.1314    8.8477 O.2     1  UNL1       -0.1498
     26 C          61.4342   87.3744    9.8826 C.ar    1  UNL1        0.1797
     27 C          61.9861   88.4848   10.7266 C.ar    1  UNL1        0.1611
     28 F          63.0439   88.1946   11.7498 F       1  UNL1       -0.2027
     29 C          61.4802   89.8855   10.5475 C.ar    1  UNL1        0.0312
     30 C          60.4224   90.1757    9.5244 C.ar    1  UNL1        0.0047
     31 C          59.8705   89.0653    8.6804 C.ar    1  UNL1        0.0312
     32 C          60.3764   87.6646    8.8595 C.ar    1  UNL1        0.1611
     33 F          59.8245   86.5542    8.0156 F       1  UNL1       -0.2027
@<TRIPOS>BOND
     1    11    12    1
     2    12    13    2
     3    13    14    1
     4    14    15    2
     5    15    16    1
     6    16    17    2
     7    17    18    1
     8    18     9    1
     9     9    10    2
    10     9     1    1
    11     1     2   ar
    12     2     3    1
    13     2     4   ar
    14     4     5   ar
    15     5     6   ar
    16     6    21    1
    17    21    23    1
    18    23    24    2
    19    23    25    2
    20    23    26    1
    21    26    27   ar
    22    27    28    1
    23    27    29   ar
    24    29    30   ar
    25    30    31   ar
    26    31    32   ar
    27    32    33    1
    28     6     7   ar
    29     7     8    1
    30    18    19    2
    31    19    20    1
    32    20    12    1
    33    19    15    1
    34     7     1   ar
    35    32    26   ar
    36    21    22    1
@<TRIPOS>MOLECULE
*****
 33 36 0 0 0
SMALL
GASTEIGER

@<TRIPOS>ATOM
      1 C          61.1190   88.2716    9.6912 C.ar    1  UNL1        0.0951
      2 C          60.2037   87.9117    8.5587 C.ar    1  UNL1        0.1454
      3 F          59.1309   88.8679    8.1287 F       1  UNL1       -0.2040
      4 C          60.3610   86.5958    7.8562 C.ar    1  UNL1        0.0312
      5 C          61.4338   85.6396    8.2863 C.ar    1  UNL1        0.0204
      6 C          62.3491   85.9995    9.4189 C.ar    1  UNL1        0.0924
      7 C          62.1917   87.3154   10.1214 C.ar    1  UNL1        0.1598
      8 F          63.1071   87.6751   11.2539 F       1  UNL1       -0.2026
      9 C          60.9616   89.5875   10.3937 C.2     1  UNL1        0.2036
     10 O          60.0569   90.6390    9.8229 O.2     1  UNL1       -0.2863
     11 C          65.7858   92.9780   10.2420 C.3     1  UNL1        0.0307
     12 C          64.9749   92.2116   11.2445 C.2     1  UNL1        0.0074
     13 C          65.3804   92.2037   12.6886 C.2     1  UNL1        0.2278
     14 N          64.5694   91.4373   13.6911 N.2     1  UNL1       -0.0314
     15 C          63.3530   90.6789   13.2496 C.2     1  UNL1        0.3720
     16 N          62.3651   89.8391   14.0038 N.2     1  UNL1       -0.0307
     17 C          61.3490   89.3281   13.0258 C.2     1  UNL1        0.2390
     18 C          61.7089   89.8520   11.6671 C.2     1  UNL1        0.0896
     19 C          62.9475   90.6868   11.8055 C.2     1  UNL1        0.0771
     20 C          63.7585   91.4532   10.8029 C.3     1  UNL1        0.0602
     21 N          63.4218   85.0433    9.8489 N.pl3   1  UNL1       -0.2127
     22 H          64.3054   85.0672    9.4153 H       1  UNL1        0.1738
     23 S          63.1484   84.0506   10.9397 S.O2    1  UNL1        0.0780
     24 O          61.8127   84.6874   11.1845 O.2     1  UNL1       -0.1498
     25 O          64.4843   83.4137   10.6949 O.2     1  UNL1       -0.1498
     26 C          62.8751   83.0578   12.0305 C.ar    1  UNL1        0.1797
     27 C          62.6940   83.5272   13.4436 C.ar    1  UNL1        0.1611
     28 F          62.7862   84.9892   13.7660 F       1  UNL1       -0.2027
     29 C          62.4206   82.5345   14.5344 C.ar    1  UNL1        0.0312
     30 C          62.3284   81.0724   14.2121 C.ar    1  UNL1        0.0047
     31 C          62.5095   80.6030   12.7990 C.ar    1  UNL1        0.0312
     32 C          62.7829   81.5957   11.7082 C.ar    1  UNL1        0.1611
     33 F          62.9640   81.1264   10.2951 F       1  UNL1       -0.2027
@<TRIPOS>BOND
     1    11    12    1
     2    12    13    2
     3    13    14    1
     4    14    15    2
     5    15    16    1
     6    16    17    2
     7    17    18    1
     8    18     9    1
     9     9    10    2
    10     9     1    1
    11     1     2   ar
    12     2     3    1
    13     2     4   ar
    14     4     5   ar
    15     5     6   ar
    16     6    21    1
    17    21    23    1
    18    23    24    2
    19    23    25    2
    20    23    26    1
    21    26    27   ar
    22    27    28    1
    23    27    29   ar
    24    29    30   ar
    25    30    31   ar
    26    31    32   ar
    27    32    33    1
    28     6     7   ar
    29     7     8    1
    30    18    19    2
    31    19    20    1
    32    20    12    1
    33    19    15    1
    34     7     1   ar
    35    32    26   ar
    36    21    22    1
@<TRIPOS>MOLECULE
*****
 33 36 0 0 0
SMALL
GASTEIGER

@<TRIPOS>ATOM
      1 C          65.5854   91.8266   13.5588 C.ar    1  UNL1        0.0951
      2 C          65.4804   91.1935   14.9146 C.ar    1  UNL1        0.1454
      3 F          66.6082   91.3281   15.8944 F       1  UNL1       -0.2040
      4 C          64.2478   90.4259   15.2906 C.ar    1  UNL1        0.0312
      5 C          63.1200   90.2913   14.3107 C.ar    1  UNL1        0.0204
      6 C          63.2250   90.9244   12.9549 C.ar    1  UNL1        0.0924
      7 C          64.4577   91.6920   12.5789 C.ar    1  UNL1        0.1598
      8 F          64.5625   92.3250   11.2231 F       1  UNL1       -0.2026
      9 C          66.8180   92.5942   13.1828 C.2     1  UNL1        0.2036
     10 O          68.1290   92.2757   13.8385 O.2     1  UNL1       -0.2863
     11 C          69.2287   91.6939    7.8753 C.3     1  UNL1        0.0307
     12 C          68.4831   92.7685    8.6097 C.2     1  UNL1        0.0074
     13 C          68.1782   94.0695    7.9283 C.2     1  UNL1        0.2278
     14 N          67.4326   95.1441    8.6627 N.2     1  UNL1       -0.0314
     15 C          66.9919   94.9176   10.0785 C.2     1  UNL1        0.3720
     16 N          66.2463   95.7854   11.0486 N.2     1  UNL1       -0.0307
     17 C          66.0904   95.0206   12.3296 C.2     1  UNL1        0.2390
     18 C          66.7396   93.6802   12.1512 C.2     1  UNL1        0.0896
     19 C          67.2968   93.6166   10.7599 C.2     1  UNL1        0.0771
     20 C          68.0424   92.5420   10.0255 C.3     1  UNL1        0.0602
     21 N          62.0973   90.7898   11.9750 N.pl3   1  UNL1       -0.2127
     22 H          61.4965   91.5517   11.8083 H       1  UNL1        0.1738
     23 S          61.8848   89.4944   11.2493 S.O2    1  UNL1        0.0780
     24 O          62.9854   89.8490   10.2939 O.2     1  UNL1       -0.1498
     25 O          60.7842   89.1396   12.2047 O.2     1  UNL1       -0.1498
     26 C          61.6724   88.1989   10.5236 C.ar    1  UNL1        0.1797
     27 C          60.8141   88.1601    9.2940 C.ar    1  UNL1        0.1611
     28 F          60.1684   89.4167    8.7901 F       1  UNL1       -0.2027
     29 C          60.6016   86.8647    8.5683 C.ar    1  UNL1        0.0312
     30 C          61.2473   85.6080    9.0721 C.ar    1  UNL1        0.0047
     31 C          62.1056   85.6468   10.3017 C.ar    1  UNL1        0.0312
     32 C          62.3181   86.9422   11.0275 C.ar    1  UNL1        0.1611
     33 F          63.1763   86.9811   12.2570 F       1  UNL1       -0.2027
@<TRIPOS>BOND
     1    11    12    1
     2    12    13    2
     3    13    14    1
     4    14    15    2
     5    15    16    1
     6    16    17    2
     7    17    18    1
     8    18     9    1
     9     9    10    2
    10     9     1    1
    11     1     2   ar
    12     2     3    1
    13     2     4   ar
    14     4     5   ar
    15     5     6   ar
    16     6    21    1
    17    21    23    1
    18    23    24    2
    19    23    25    2
    20    23    26    1
    21    26    27   ar
    22    27    28    1
    23    27    29   ar
    24    29    30   ar
    25    30    31   ar
    26    31    32   ar
    27    32    33    1
    28     6     7   ar
    29     7     8    1
    30    18    19    2
    31    19    20    1
    32    20    12    1
    33    19    15    1
    34     7     1   ar
    35    32    26   ar
    36    21    22    1
@<TRIPOS>MOLECULE
*****
 33 36 0 0 0
SMALL
GASTEIGER

@<TRIPOS>ATOM
      1 C          62.9333   88.4195   12.5702 C.ar    1  UNL1        0.0951
      2 C          62.1263   88.2947   11.3121 C.ar    1  UNL1        0.1454
      3 F          61.5054   89.5130   10.6954 F       1  UNL1       -0.2040
      4 C          61.9400   86.9516   10.6706 C.ar    1  UNL1        0.0312
      5 C          62.5608   85.7333   11.2873 C.ar    1  UNL1        0.0204
      6 C          63.3679   85.8582   12.5455 C.ar    1  UNL1        0.0924
      7 C          63.5542   87.2012   13.1870 C.ar    1  UNL1        0.1598
      8 F          64.3613   87.3259   14.4452 F       1  UNL1       -0.2026
      9 C          63.1196   89.7625   13.2117 C.2     1  UNL1        0.2036
     10 O          62.4606   90.0644   14.5249 O.2     1  UNL1       -0.2863
     11 C          67.2547   92.5667   16.3469 C.3     1  UNL1        0.0307
     12 C          66.7138   92.5525   14.9479 C.2     1  UNL1        0.0074
     13 C          67.2913   93.4699   13.9111 C.2     1  UNL1        0.2278
     14 N          66.7504   93.4557   12.5121 N.2     1  UNL1       -0.0314
     15 C          65.6320   92.5241   12.1499 C.2     1  UNL1        0.3720
     16 N          64.8993   92.2882   10.8624 N.2     1  UNL1       -0.0307
     17 C          63.8690   91.2250   11.1034 C.2     1  UNL1        0.2390
     18 C          63.9649   90.8038   12.5399 C.2     1  UNL1        0.0896
     19 C          65.0545   91.6067   13.1866 C.2     1  UNL1        0.0771
     20 C          65.5954   91.6209   14.5856 C.3     1  UNL1        0.0602
     21 N          63.9887   84.6398   13.1622 N.pl3   1  UNL1       -0.2127
     22 H          64.6245   84.7352   13.9078 H       1  UNL1        0.1738
     23 S          63.6409   83.2763   12.6429 S.O2    1  UNL1        0.0780
     24 O          62.2801   83.3867   13.2641 O.2     1  UNL1       -0.1498
     25 O          65.0017   83.1658   12.0216 O.2     1  UNL1       -0.1498
     26 C          63.2931   81.9127   12.1235 C.ar    1  UNL1        0.1797
     27 C          62.9107   80.8213   13.0789 C.ar    1  UNL1        0.1611
     28 F          62.8762   81.0935   14.5537 F       1  UNL1       -0.2027
     29 C          62.5629   79.4578   12.5597 C.ar    1  UNL1        0.0312
     30 C          62.5975   79.1855   11.0850 C.ar    1  UNL1        0.0047
     31 C          62.9798   80.2768   10.1296 C.ar    1  UNL1        0.0312
     32 C          63.3276   81.6404   10.6488 C.ar    1  UNL1        0.1611
     33 F          63.7099   82.7318    9.6935 F       1  UNL1       -0.2027
@<TRIPOS>BOND
     1    11    12    1
     2    12    13    2
     3    13    14    1
     4    14    15    2
     5    15    16    1
     6    16    17    2
     7    17    18    1
     8    18     9    1
     9     9    10    2
    10     9     1    1
    11     1     2   ar
    12     2     3    1
    13     2     4   ar
    14     4     5   ar
    15     5     6   ar
    16     6    21    1
    17    21    23    1
    18    23    24    2
    19    23    25    2
    20    23    26    1
    21    26    27   ar
    22    27    28    1
    23    27    29   ar
    24    29    30   ar
    25    30    31   ar
    26    31    32   ar
    27    32    33    1
    28     6     7   ar
    29     7     8    1
    30    18    19    2
    31    19    20    1
    32    20    12    1
    33    19    15    1
    34     7     1   ar
    35    32    26   ar
    36    21    22    1
@<TRIPOS>MOLECULE
*****
 33 36 0 0 0
SMALL
GASTEIGER

@<TRIPOS>ATOM
      1 C          61.9844   86.5005   10.6953 C.ar    1  UNL1        0.0951
      2 C          60.8606   86.7288    9.7284 C.ar    1  UNL1        0.1454
      3 F          60.4865   85.6578    8.7471 F       1  UNL1       -0.2040
      4 C          60.1110   88.0279    9.7428 C.ar    1  UNL1        0.0312
      5 C          60.4852   89.0989   10.7241 C.ar    1  UNL1        0.0204
      6 C          61.6090   88.8706   11.6911 C.ar    1  UNL1        0.0924
      7 C          62.3587   87.5714   11.6767 C.ar    1  UNL1        0.1598
      8 F          63.4824   87.3433   12.6437 F       1  UNL1       -0.2026
      9 C          62.7341   85.2013   10.6809 C.2     1  UNL1        0.2036
     10 O          63.5419   84.8149    9.4776 O.2     1  UNL1       -0.2863
     11 C          62.9294   79.3670    9.8359 C.3     1  UNL1        0.0307
     12 C          62.8299   80.3411   10.9723 C.2     1  UNL1        0.0074
     13 C          62.7469   79.8407   12.3839 C.2     1  UNL1        0.2278
     14 N          62.6475   80.8148   13.5203 N.2     1  UNL1       -0.0314
     15 C          62.6309   82.2892   13.2450 C.2     1  UNL1        0.3720
     16 N          62.5416   83.4791   14.1540 N.2     1  UNL1       -0.0307
     17 C          62.5694   84.7148   13.3041 C.2     1  UNL1        0.2390
     18 C          62.6759   84.2887   11.8699 C.2     1  UNL1        0.0896
     19 C          62.7139   82.7895   11.8334 C.2     1  UNL1        0.0771
     20 C          62.8134   81.8155   10.6970 C.3     1  UNL1        0.0602
     21 N          61.9832   89.9416   12.6724 N.pl3   1  UNL1       -0.2127
     22 H          61.3694   90.1727   13.4067 H       1  UNL1        0.1738
     23 S          63.2925   90.6605   12.5351 S.O2    1  UNL1        0.0780
     24 O          63.1481   91.1902   13.9309 O.2     1  UNL1       -0.1498
     25 O          63.4369   90.1308   11.1392 O.2     1  UNL1       -0.1498
     26 C          64.6019   91.3794   12.3977 C.ar    1  UNL1        0.1797
     27 C          65.6483   91.2419   13.4635 C.ar    1  UNL1        0.1611
     28 F          65.3856   90.3855   14.6667 F       1  UNL1       -0.2027
     29 C          66.9577   91.9607   13.3261 C.ar    1  UNL1        0.0312
     30 C          67.2205   92.8171   12.1230 C.ar    1  UNL1        0.0047
     31 C          66.1740   92.9546   11.0572 C.ar    1  UNL1        0.0312
     32 C          64.8647   92.2358   11.1945 C.ar    1  UNL1        0.1611
     33 F          63.8182   92.3732   10.1288 F       1  UNL1       -0.2027
@<TRIPOS>BOND
     1    11    12    1
     2    12    13    2
     3    13    14    1
     4    14    15    2
     5    15    16    1
     6    16    17    2
     7    17    18    1
     8    18     9    1
     9     9    10    2
    10     9     1    1
    11     1     2   ar
    12     2     3    1
    13     2     4   ar
    14     4     5   ar
    15     5     6   ar
    16     6    21    1
    17    21    23    1
    18    23    24    2
    19    23    25    2
    20    23    26    1
    21    26    27   ar
    22    27    28    1
    23    27    29   ar
    24    29    30   ar
    25    30    31   ar
    26    31    32   ar
    27    32    33    1
    28     6     7   ar
    29     7     8    1
    30    18    19    2
    31    19    20    1
    32    20    12    1
    33    19    15    1
    34     7     1   ar
    35    32    26   ar
    36    21    22    1
