@<TRIPOS>MOLECULE
*****
 41 44 0 0 0
SMALL
GASTEIGER

@<TRIPOS>ATOM
      1 C          59.3340   89.1803    7.2301 C.3     1  UNL1        0.0889
      2 C          59.3290   87.6891    7.0674 C.3     1  UNL1        0.0383
      3 C          60.1367   87.0982    8.1847 C.3     1  UNL1        0.0739
      4 N          60.6410   88.2242    9.0380 N.3     1  UNL1       -0.2700
      5 C          60.1449   89.5109    8.4480 C.3     1  UNL1        0.0919
      6 O          60.9343   90.7794    5.2599 O.2     1  UNL1       -0.2733
      7 C          59.4487   90.9670    5.3474 C.2     1  UNL1        0.2425
      8 N          58.6485   90.1675    6.3325 N.am    1  UNL1       -0.3032
      9 H          57.6735   90.2906    6.3899 H       1  UNL1        0.1495
     10 C          58.7632   91.9542    4.4499 C.3     1  UNL1        0.1759
     11 N          59.1084   92.0072    2.9911 N.am    1  UNL1       -0.2931
     12 C          59.7384   93.2400    2.4138 C.2     1  UNL1        0.2462
     13 O          60.0233   94.4197    3.2953 O.2     1  UNL1       -0.2701
     14 H          58.9215   91.2329    2.4125 H       1  UNL1        0.1502
     15 C          60.0837   93.2930    0.9550 C.ar    1  UNL1        0.0533
     16 C          61.4660   93.6859    0.5252 C.ar    1  UNL1        0.0045
     17 C          61.8111   93.7389   -0.9336 C.ar    1  UNL1        0.0001
     18 C          60.7740   93.3990   -1.9625 C.ar    1  UNL1        0.0039
     19 C          59.3917   93.0061   -1.5327 C.ar    1  UNL1        0.0716
     20 C          59.0465   92.9530   -0.0740 C.ar    1  UNL1        0.0084
     21 C          58.3545   92.6661   -2.5617 C.3     1  UNL1        0.4186
     22 F          57.3174   92.3262   -3.5907 F       1  UNL1       -0.1659
     23 F          59.2603   93.1761   -3.6432 F       1  UNL1       -0.1659
     24 F          57.4488   92.1561   -1.4803 F       1  UNL1       -0.1659
     25 C          61.4920   88.0874   10.2656 C.3     1  UNL1        0.0897
     26 C          61.4149   89.1204   11.3505 C.3     1  UNL1        0.0897
     27 N          62.5540   90.0732   11.5612 N.3     1  UNL1       -0.2686
     28 C          63.0298   90.9352   10.4296 C.3     1  UNL1        0.0939
     29 C          64.1690   91.8881   10.6402 C.3     1  UNL1        0.1110
     30 N          64.8323   91.9789   11.9825 N.am    1  UNL1       -0.2732
     31 C          65.9716   92.9318   12.1932 C.2     1  UNL1        0.2513
     32 O          66.6349   93.0226   13.5355 O.2     1  UNL1       -0.2698
     33 C          64.3565   91.1169   13.1142 C.3     1  UNL1        0.1110
     34 C          63.2174   90.1640   12.9035 C.3     1  UNL1        0.0939
     35 C          66.4473   93.7938   11.0616 C.ar    1  UNL1        0.0810
     36 C          66.0255   95.2311   10.9850 C.ar    1  UNL1        0.0068
     37 C          66.5013   96.0931    9.8534 C.ar    1  UNL1        0.0003
     38 C          67.3989   95.5176    8.7983 C.ar    1  UNL1        0.0023
     39 C          67.8208   94.0802    8.8749 C.ar    1  UNL1        0.0298
     40 C          67.3450   93.2182   10.0065 C.ar    1  UNL1        0.1445
     41 F          67.7668   91.7808   10.0831 F       1  UNL1       -0.2040
@<TRIPOS>BOND
     1     6     7    2
     2     7    10    1
     3    10    11    1
     4    11    12   am
     5    12    13    2
     6    12    15    1
     7    15    16   ar
     8    16    17   ar
     9    17    18   ar
    10    18    19   ar
    11    19    21    1
    12    21    22    1
    13    21    23    1
    14    21    24    1
    15    19    20   ar
    16     7     8   am
    17     1     8    1
    18     1     2    1
    19     2     3    1
    20     3     4    1
    21     4    25    1
    22    25    26    1
    23    26    27    1
    24    27    28    1
    25    28    29    1
    26    29    30    1
    27    30    31   am
    28    31    32    2
    29    31    35    1
    30    35    36   ar
    31    36    37   ar
    32    37    38   ar
    33    38    39   ar
    34    39    40   ar
    35    40    41    1
    36    30    33    1
    37    33    34    1
    38     4     5    1
    39    20    15   ar
    40     5     1    1
    41    34    27    1
    42    40    35   ar
    43    11    14    1
    44     8     9    1
@<TRIPOS>MOLECULE
*****
 41 44 0 0 0
SMALL
GASTEIGER

@<TRIPOS>ATOM
      1 C          59.7478   89.5006    6.9725 C.3     1  UNL1        0.0889
      2 C          59.2470   88.0870    7.0026 C.3     1  UNL1        0.0383
      3 C          59.4793   87.5422    8.3807 C.3     1  UNL1        0.0739
      4 N          60.1236   88.6191    9.2024 N.3     1  UNL1       -0.2700
      5 C          60.2896   89.8294    8.3321 C.3     1  UNL1        0.0919
      6 O          57.1280   90.5862    5.9937 O.2     1  UNL1       -0.2733
      7 C          58.4030   90.9662    5.3010 C.2     1  UNL1        0.2425
      8 N          59.7129   90.4234    5.7904 N.am    1  UNL1       -0.3032
      9 H          60.5498   90.6728    5.3358 H       1  UNL1        0.1495
     10 C          58.3682   91.8889    4.1190 C.3     1  UNL1        0.1759
     11 N          59.5588   92.7438    3.7995 N.am    1  UNL1       -0.2931
     12 C          59.8218   93.1645    2.3840 C.2     1  UNL1        0.2462
     13 O          58.8943   92.7305    1.2879 O.2     1  UNL1       -0.2701
     14 H          60.1675   93.0287    4.5189 H       1  UNL1        0.1502
     15 C          61.0123   94.0194    2.0645 C.ar    1  UNL1        0.0533
     16 C          60.8858   95.5140    2.0710 C.ar    1  UNL1        0.0045
     17 C          62.0763   96.3687    1.7515 C.ar    1  UNL1        0.0001
     18 C          63.3933   95.7289    1.4255 C.ar    1  UNL1        0.0039
     19 C          63.5197   94.2342    1.4191 C.ar    1  UNL1        0.0716
     20 C          62.3292   93.3795    1.7386 C.ar    1  UNL1        0.0084
     21 C          64.8367   93.5944    1.0931 C.3     1  UNL1        0.4186
     22 F          66.1536   92.9545    0.7672 F       1  UNL1       -0.1659
     23 F          65.3437   94.9051    0.5687 F       1  UNL1       -0.1659
     24 F          64.3296   92.2837    1.6176 F       1  UNL1       -0.1659
     25 C          60.5306   88.5055   10.6417 C.3     1  UNL1        0.0897
     26 C          60.6838   89.7416   11.4775 C.3     1  UNL1        0.0897
     27 N          62.0390   90.3566   11.6654 N.3     1  UNL1       -0.2686
     28 C          62.7097   91.0575   10.5214 C.3     1  UNL1        0.0939
     29 C          64.0649   91.6725   10.7093 C.3     1  UNL1        0.1110
     30 N          64.7492   91.5866   12.0414 N.am    1  UNL1       -0.2732
     31 C          66.1044   92.2016   12.2294 C.2     1  UNL1        0.2513
     32 O          66.7888   92.1157   13.5614 O.2     1  UNL1       -0.2698
     33 C          64.0785   90.8857   13.1855 C.3     1  UNL1        0.1110
     34 C          62.7233   90.2707   12.9975 C.3     1  UNL1        0.0939
     35 C          66.7752   92.9025   11.0853 C.ar    1  UNL1        0.0810
     36 C          67.6539   92.1320   10.1452 C.ar    1  UNL1        0.0068
     37 C          68.3247   92.8328    9.0011 C.ar    1  UNL1        0.0003
     38 C          68.1167   94.3042    8.7973 C.ar    1  UNL1        0.0023
     39 C          67.2378   95.0748    9.7375 C.ar    1  UNL1        0.0298
     40 C          66.5671   94.3739   10.8815 C.ar    1  UNL1        0.1445
     41 F          65.6883   95.1445   11.8217 F       1  UNL1       -0.2040
@<TRIPOS>BOND
     1     6     7    2
     2     7    10    1
     3    10    11    1
     4    11    12   am
     5    12    13    2
     6    12    15    1
     7    15    16   ar
     8    16    17   ar
     9    17    18   ar
    10    18    19   ar
    11    19    21    1
    12    21    22    1
    13    21    23    1
    14    21    24    1
    15    19    20   ar
    16     7     8   am
    17     1     8    1
    18     1     2    1
    19     2     3    1
    20     3     4    1
    21     4    25    1
    22    25    26    1
    23    26    27    1
    24    27    28    1
    25    28    29    1
    26    29    30    1
    27    30    31   am
    28    31    32    2
    29    31    35    1
    30    35    36   ar
    31    36    37   ar
    32    37    38   ar
    33    38    39   ar
    34    39    40   ar
    35    40    41    1
    36    30    33    1
    37    33    34    1
    38     4     5    1
    39    20    15   ar
    40     5     1    1
    41    34    27    1
    42    40    35   ar
    43    11    14    1
    44     8     9    1
@<TRIPOS>MOLECULE
*****
 41 44 0 0 0
SMALL
GASTEIGER

@<TRIPOS>ATOM
      1 C          59.3060   89.2196    7.2467 C.3     1  UNL1        0.0889
      2 C          59.3270   87.7363    7.0244 C.3     1  UNL1        0.0383
      3 C          60.1624   87.1173    8.1056 C.3     1  UNL1        0.0739
      4 N          60.6577   88.2181    8.9962 N.3     1  UNL1       -0.2700
      5 C          60.1285   89.5174    8.4653 C.3     1  UNL1        0.0919
      6 O          60.8236   90.8237    5.2159 O.2     1  UNL1       -0.2733
      7 C          59.3473   91.0301    5.3838 C.2     1  UNL1        0.2425
      8 N          58.5886   90.2281    6.3991 N.am    1  UNL1       -0.3032
      9 H          57.6197   90.3636    6.5093 H       1  UNL1        0.1495
     10 C          58.6299   92.0386    4.5363 C.3     1  UNL1        0.1759
     11 N          58.8260   92.0439    3.0491 N.am    1  UNL1       -0.2931
     12 C          59.5835   93.1620    2.3965 C.2     1  UNL1        0.2462
     13 O          60.1451   94.2748    3.2310 O.2     1  UNL1       -0.2701
     14 H          58.4574   91.3135    2.5014 H       1  UNL1        0.1502
     15 C          59.7796   93.1673    0.9094 C.ar    1  UNL1        0.0533
     16 C          58.5966   93.0375   -0.0036 C.ar    1  UNL1        0.0045
     17 C          58.7927   93.0428   -1.4907 C.ar    1  UNL1        0.0001
     18 C          60.1719   93.1780   -2.0648 C.ar    1  UNL1        0.0039
     19 C          61.3549   93.3078   -1.1519 C.ar    1  UNL1        0.0716
     20 C          61.1588   93.3025    0.3352 C.ar    1  UNL1        0.0084
     21 C          62.7341   93.4430   -1.7260 C.3     1  UNL1        0.4186
     22 F          64.1132   93.5782   -2.3002 F       1  UNL1       -0.1659
     23 F          63.3161   93.3682   -0.3456 F       1  UNL1       -0.1659
     24 F          62.1521   93.5179   -3.1065 F       1  UNL1       -0.1659
     25 C          61.5293   88.0493   10.2052 C.3     1  UNL1        0.0897
     26 C          61.4507   89.0381   11.3304 C.3     1  UNL1        0.0897
     27 N          62.5726   90.0079   11.5563 N.3     1  UNL1       -0.2686
     28 C          63.0497   90.8780   10.4314 C.3     1  UNL1        0.0939
     29 C          64.1716   91.8478   10.6573 C.3     1  UNL1        0.1110
     30 N          64.8163   91.9473   12.0080 N.am    1  UNL1       -0.2732
     31 C          65.9382   92.9171   12.2339 C.2     1  UNL1        0.2513
     32 O          66.5829   93.0167   13.5846 O.2     1  UNL1       -0.2698
     33 C          64.3391   91.0772   13.1329 C.3     1  UNL1        0.1110
     34 C          63.2173   90.1075   12.9070 C.3     1  UNL1        0.0939
     35 C          66.4153   93.7872   11.1091 C.ar    1  UNL1        0.0810
     36 C          65.9962   95.2259   11.0441 C.ar    1  UNL1        0.0068
     37 C          66.4734   96.0960    9.9193 C.ar    1  UNL1        0.0003
     38 C          67.3696   95.5273    8.8594 C.ar    1  UNL1        0.0023
     39 C          67.7886   94.0885    8.9244 C.ar    1  UNL1        0.0298
     40 C          67.3115   93.2184   10.0492 C.ar    1  UNL1        0.1445
     41 F          67.7306   91.7797   10.1141 F       1  UNL1       -0.2040
@<TRIPOS>BOND
     1     6     7    2
     2     7    10    1
     3    10    11    1
     4    11    12   am
     5    12    13    2
     6    12    15    1
     7    15    16   ar
     8    16    17   ar
     9    17    18   ar
    10    18    19   ar
    11    19    21    1
    12    21    22    1
    13    21    23    1
    14    21    24    1
    15    19    20   ar
    16     7     8   am
    17     1     8    1
    18     1     2    1
    19     2     3    1
    20     3     4    1
    21     4    25    1
    22    25    26    1
    23    26    27    1
    24    27    28    1
    25    28    29    1
    26    29    30    1
    27    30    31   am
    28    31    32    2
    29    31    35    1
    30    35    36   ar
    31    36    37   ar
    32    37    38   ar
    33    38    39   ar
    34    39    40   ar
    35    40    41    1
    36    30    33    1
    37    33    34    1
    38     4     5    1
    39    20    15   ar
    40     5     1    1
    41    34    27    1
    42    40    35   ar
    43    11    14    1
    44     8     9    1
@<TRIPOS>MOLECULE
*****
 41 44 0 0 0
SMALL
GASTEIGER

@<TRIPOS>ATOM
      1 C          59.1779   90.0868    5.7661 C.3     1  UNL1        0.0889
      2 C          58.1841   91.1421    5.3803 C.3     1  UNL1        0.0383
      3 C          58.8962   92.1675    4.5488 C.3     1  UNL1        0.0739
      4 N          60.3301   91.7461    4.4207 N.3     1  UNL1       -0.2700
      5 C          60.5041   90.4601    5.1730 C.3     1  UNL1        0.0919
      6 O          60.5693   89.7145    8.3977 O.2     1  UNL1       -0.2733
      7 C          59.5907   88.6854    7.9145 C.2     1  UNL1        0.2425
      8 N          58.8951   88.8716    6.5988 N.am    1  UNL1       -0.3032
      9 H          58.2528   88.1961    6.2816 H       1  UNL1        0.1495
     10 C          59.3079   87.4702    8.7471 C.3     1  UNL1        0.1759
     11 N          60.3834   86.4495    8.9738 N.am    1  UNL1       -0.2931
     12 C          61.0823   86.3780   10.2992 C.2     1  UNL1        0.2462
     13 O          60.7056   87.3272   11.3978 O.2     1  UNL1       -0.2701
     14 H          60.6307   85.8264    8.2528 H       1  UNL1        0.1502
     15 C          62.1578   85.3572   10.5259 C.ar    1  UNL1        0.0533
     16 C          62.9111   84.7897    9.3595 C.ar    1  UNL1        0.0045
     17 C          63.9865   83.7690    9.5863 C.ar    1  UNL1        0.0001
     18 C          64.3087   83.3157   10.9794 C.ar    1  UNL1        0.0039
     19 C          63.5554   83.8833   12.1457 C.ar    1  UNL1        0.0716
     20 C          62.4800   84.9040   11.9190 C.ar    1  UNL1        0.0084
     21 C          63.8776   83.4300   13.5389 C.3     1  UNL1        0.4186
     22 F          64.1998   82.9768   14.9320 F       1  UNL1       -0.1659
     23 F          64.6883   84.6733   13.7559 F       1  UNL1       -0.1659
     24 F          63.0669   82.1868   13.3219 F       1  UNL1       -0.1659
     25 C          61.4017   92.4814    3.6718 C.3     1  UNL1        0.0897
     26 C          61.6208   92.2067    2.2136 C.3     1  UNL1        0.0897
     27 N          60.6510   92.7326    1.1973 N.3     1  UNL1       -0.2686
     28 C          60.3523   91.9349   -0.0374 C.3     1  UNL1        0.0939
     29 C          59.3824   92.4608   -1.0537 C.3     1  UNL1        0.1110
     30 N          58.7112   93.7844   -0.8352 N.am    1  UNL1       -0.2732
     31 C          57.7413   94.3103   -1.8515 C.2     1  UNL1        0.2513
     32 O          57.0701   95.6338   -1.6330 O.2     1  UNL1       -0.2698
     33 C          59.0099   94.5820    0.3995 C.3     1  UNL1        0.1110
     34 C          59.9797   94.0562    1.4158 C.3     1  UNL1        0.0939
     35 C          57.4427   93.5126   -3.0862 C.ar    1  UNL1        0.0810
     36 C          58.0612   93.8994   -4.3968 C.ar    1  UNL1        0.0068
     37 C          57.7626   93.1017   -5.6315 C.ar    1  UNL1        0.0003
     38 C          56.8454   91.9172   -5.5556 C.ar    1  UNL1        0.0023
     39 C          56.2269   91.5304   -4.2449 C.ar    1  UNL1        0.0298
     40 C          56.5255   92.3281   -3.0102 C.ar    1  UNL1        0.1445
     41 F          55.9070   91.9413   -1.6996 F       1  UNL1       -0.2040
@<TRIPOS>BOND
     1     6     7    2
     2     7    10    1
     3    10    11    1
     4    11    12   am
     5    12    13    2
     6    12    15    1
     7    15    16   ar
     8    16    17   ar
     9    17    18   ar
    10    18    19   ar
    11    19    21    1
    12    21    22    1
    13    21    23    1
    14    21    24    1
    15    19    20   ar
    16     7     8   am
    17     1     8    1
    18     1     2    1
    19     2     3    1
    20     3     4    1
    21     4    25    1
    22    25    26    1
    23    26    27    1
    24    27    28    1
    25    28    29    1
    26    29    30    1
    27    30    31   am
    28    31    32    2
    29    31    35    1
    30    35    36   ar
    31    36    37   ar
    32    37    38   ar
    33    38    39   ar
    34    39    40   ar
    35    40    41    1
    36    30    33    1
    37    33    34    1
    38     4     5    1
    39    20    15   ar
    40     5     1    1
    41    34    27    1
    42    40    35   ar
    43    11    14    1
    44     8     9    1
@<TRIPOS>MOLECULE
*****
 41 44 0 0 0
SMALL
GASTEIGER

@<TRIPOS>ATOM
      1 C          59.2634   91.7795    4.4217 C.3     1  UNL1        0.0889
      2 C          57.8482   91.5488    4.8622 C.3     1  UNL1        0.0383
      3 C          57.8593   90.4838    5.9183 C.3     1  UNL1        0.0739
      4 N          59.2813   90.0561    6.1306 N.3     1  UNL1       -0.2700
      5 C          60.1491   90.8570    5.2057 C.3     1  UNL1        0.0919
      6 O          62.1136   91.7706    3.4856 O.2     1  UNL1       -0.2733
      7 C          61.1389   92.7560    2.9121 C.2     1  UNL1        0.2425
      8 N          59.7139   92.7605    3.3802 N.am    1  UNL1       -0.3032
      9 H          59.0742   93.4073    3.0038 H       1  UNL1        0.1495
     10 C          61.5893   93.7370    1.8706 C.3     1  UNL1        0.1759
     11 N          60.6626   94.1277    0.7576 N.am    1  UNL1       -0.2931
     12 C          60.1936   93.0959   -0.2249 C.2     1  UNL1        0.2462
     13 O          60.6513   91.6734   -0.0945 O.2     1  UNL1       -0.2701
     14 H          60.3622   95.0613    0.6720 H       1  UNL1        0.1502
     15 C          59.2669   93.4866   -1.3379 C.ar    1  UNL1        0.0533
     16 C          59.7880   93.6111   -2.7389 C.ar    1  UNL1        0.0045
     17 C          58.8613   94.0018   -3.8517 C.ar    1  UNL1        0.0001
     18 C          57.4135   94.2679   -3.5636 C.ar    1  UNL1        0.0039
     19 C          56.8924   94.1433   -2.1626 C.ar    1  UNL1        0.0716
     20 C          57.8191   93.7526   -1.0497 C.ar    1  UNL1        0.0084
     21 C          55.4446   94.4094   -1.8745 C.3     1  UNL1        0.4186
     22 F          53.9968   94.6755   -1.5864 F       1  UNL1       -0.1659
     23 F          55.7214   95.8833   -1.8445 F       1  UNL1       -0.1659
     24 F          55.1677   92.9354   -1.9045 F       1  UNL1       -0.1659
     25 C          59.7528   89.0112    7.0980 C.3     1  UNL1        0.0897
     26 C          59.8656   89.3370    8.5578 C.3     1  UNL1        0.0897
     27 N          60.6460   88.4367    9.4690 N.3     1  UNL1       -0.2686
     28 C          60.7018   86.9622    9.1990 C.3     1  UNL1        0.0939
     29 C          61.4822   86.0618   10.1102 C.3     1  UNL1        0.1110
     30 N          62.2068   86.6360   11.2914 N.am    1  UNL1       -0.2732
     31 C          62.9873   85.7355   12.2027 C.2     1  UNL1        0.2513
     32 O          63.7119   86.3096   13.3839 O.2     1  UNL1       -0.2698
     33 C          62.1511   88.1104   11.5615 C.3     1  UNL1        0.1110
     34 C          61.3707   89.0108   10.6503 C.3     1  UNL1        0.0939
     35 C          63.0430   84.2611   11.9326 C.ar    1  UNL1        0.0810
     36 C          63.6277   83.7556   10.6472 C.ar    1  UNL1        0.0068
     37 C          63.6834   82.2812   10.3771 C.ar    1  UNL1        0.0003
     38 C          63.1544   81.3123   11.3926 C.ar    1  UNL1        0.0023
     39 C          62.5696   81.8178   12.6782 C.ar    1  UNL1        0.0298
     40 C          62.5139   83.2922   12.9482 C.ar    1  UNL1        0.1445
     41 F          61.9292   83.7976   14.2337 F       1  UNL1       -0.2040
@<TRIPOS>BOND
     1     6     7    2
     2     7    10    1
     3    10    11    1
     4    11    12   am
     5    12    13    2
     6    12    15    1
     7    15    16   ar
     8    16    17   ar
     9    17    18   ar
    10    18    19   ar
    11    19    21    1
    12    21    22    1
    13    21    23    1
    14    21    24    1
    15    19    20   ar
    16     7     8   am
    17     1     8    1
    18     1     2    1
    19     2     3    1
    20     3     4    1
    21     4    25    1
    22    25    26    1
    23    26    27    1
    24    27    28    1
    25    28    29    1
    26    29    30    1
    27    30    31   am
    28    31    32    2
    29    31    35    1
    30    35    36   ar
    31    36    37   ar
    32    37    38   ar
    33    38    39   ar
    34    39    40   ar
    35    40    41    1
    36    30    33    1
    37    33    34    1
    38     4     5    1
    39    20    15   ar
    40     5     1    1
    41    34    27    1
    42    40    35   ar
    43    11    14    1
    44     8     9    1
@<TRIPOS>MOLECULE
*****
 41 44 0 0 0
SMALL
GASTEIGER

@<TRIPOS>ATOM
      1 C          61.7248   85.7317   11.0820 C.3     1  UNL1        0.0889
      2 C          62.6644   84.8492   10.3150 C.3     1  UNL1        0.0383
      3 C          63.5952   84.1999   11.2958 C.3     1  UNL1        0.0739
      4 N          63.2309   84.6811   12.6690 N.3     1  UNL1       -0.2700
      5 C          62.0749   85.6278   12.5369 C.3     1  UNL1        0.0919
      6 O          62.3739   88.3582    9.7858 O.2     1  UNL1       -0.2733
      7 C          60.9522   87.8840    9.8489 C.2     1  UNL1        0.2425
      8 N          60.6276   86.5708   10.4969 N.am    1  UNL1       -0.3032
      9 H          59.6945   86.2596   10.5383 H       1  UNL1        0.1495
     10 C          59.8551   88.7231    9.2638 C.3     1  UNL1        0.1759
     11 N          60.1523   89.6661    8.1358 N.am    1  UNL1       -0.2931
     12 C          59.3684   89.5800    6.8599 C.2     1  UNL1        0.2462
     13 O          58.2872   88.5508    6.7119 O.2     1  UNL1       -0.2701
     14 H          60.8620   90.3415    8.2329 H       1  UNL1        0.1502
     15 C          59.6657   90.5230    5.7318 C.ar    1  UNL1        0.0533
     16 C          58.6073   91.4684    5.2459 C.ar    1  UNL1        0.0045
     17 C          58.9046   92.4113    4.1179 C.ar    1  UNL1        0.0001
     18 C          60.2603   92.4089    3.4758 C.ar    1  UNL1        0.0039
     19 C          61.3186   91.4635    3.9617 C.ar    1  UNL1        0.0716
     20 C          61.0213   90.5206    5.0897 C.ar    1  UNL1        0.0084
     21 C          62.6742   91.4611    3.3197 C.3     1  UNL1        0.4186
     22 F          64.0298   91.4587    2.6776 F       1  UNL1       -0.1659
     23 F          62.5096   92.9097    2.9667 F       1  UNL1       -0.1659
     24 F          62.8388   90.0125    3.6726 F       1  UNL1       -0.1659
     25 C          63.9043   84.2852   13.9495 C.3     1  UNL1        0.0897
     26 C          63.5463   84.9783   15.2307 C.3     1  UNL1        0.0897
     27 N          63.6762   86.4687   15.3387 N.3     1  UNL1       -0.2686
     28 C          64.4606   87.2296   14.3112 C.3     1  UNL1        0.0939
     29 C          64.5906   88.7201   14.4192 C.3     1  UNL1        0.1110
     30 N          63.9361   89.4496   15.5548 N.am    1  UNL1       -0.2732
     31 C          64.0661   90.9401   15.6628 C.2     1  UNL1        0.2513
     32 O          63.4117   91.6697   16.7984 O.2     1  UNL1       -0.2698
     33 C          63.1518   88.6887   16.5823 C.3     1  UNL1        0.1110
     34 C          63.0218   87.1983   16.4743 C.3     1  UNL1        0.0939
     35 C          64.8505   91.7010   14.6353 C.ar    1  UNL1        0.0810
     36 C          64.4711   91.6143   13.1867 C.ar    1  UNL1        0.0068
     37 C          65.2555   92.3752   12.1592 C.ar    1  UNL1        0.0003
     38 C          66.4193   93.2227   12.5803 C.ar    1  UNL1        0.0023
     39 C          66.7987   93.3093   14.0290 C.ar    1  UNL1        0.0298
     40 C          66.0143   92.5485   15.0565 C.ar    1  UNL1        0.1445
     41 F          66.3936   92.6351   16.5051 F       1  UNL1       -0.2040
@<TRIPOS>BOND
     1     6     7    2
     2     7    10    1
     3    10    11    1
     4    11    12   am
     5    12    13    2
     6    12    15    1
     7    15    16   ar
     8    16    17   ar
     9    17    18   ar
    10    18    19   ar
    11    19    21    1
    12    21    22    1
    13    21    23    1
    14    21    24    1
    15    19    20   ar
    16     7     8   am
    17     1     8    1
    18     1     2    1
    19     2     3    1
    20     3     4    1
    21     4    25    1
    22    25    26    1
    23    26    27    1
    24    27    28    1
    25    28    29    1
    26    29    30    1
    27    30    31   am
    28    31    32    2
    29    31    35    1
    30    35    36   ar
    31    36    37   ar
    32    37    38   ar
    33    38    39   ar
    34    39    40   ar
    35    40    41    1
    36    30    33    1
    37    33    34    1
    38     4     5    1
    39    20    15   ar
    40     5     1    1
    41    34    27    1
    42    40    35   ar
    43    11    14    1
    44     8     9    1
@<TRIPOS>MOLECULE
*****
 41 44 0 0 0
SMALL
GASTEIGER

@<TRIPOS>ATOM
      1 C          58.9648   90.0424    5.9154 C.3     1  UNL1        0.0889
      2 C          57.8642   90.9758    5.5062 C.3     1  UNL1        0.0383
      3 C          58.4365   91.9734    4.5433 C.3     1  UNL1        0.0739
      4 N          59.8909   91.6566    4.3573 N.3     1  UNL1       -0.2700
      5 C          60.2173   90.4632    5.2053 C.3     1  UNL1        0.0919
      6 O          60.5891   89.9912    8.4371 O.2     1  UNL1       -0.2733
      7 C          59.6478   88.8649    8.1283 C.2     1  UNL1        0.2425
      8 N          58.8356   88.8905    6.8675 N.am    1  UNL1       -0.3032
      9 H          58.2178   88.1513    6.6648 H       1  UNL1        0.1495
     10 C          59.5186   87.7130    9.0803 C.3     1  UNL1        0.1759
     11 N          60.5764   86.6502    9.1197 N.am    1  UNL1       -0.2931
     12 C          61.2080   86.2687   10.4256 C.2     1  UNL1        0.2462
     13 O          60.7818   86.9499   11.6922 O.2     1  UNL1       -0.2701
     14 H          60.8561   86.2031    8.2884 H       1  UNL1        0.1502
     15 C          62.2658   85.2059   10.4650 C.ar    1  UNL1        0.0533
     16 C          63.0349   84.8668    9.2227 C.ar    1  UNL1        0.0045
     17 C          64.0927   83.8040    9.2621 C.ar    1  UNL1        0.0001
     18 C          64.3814   83.0803   10.5438 C.ar    1  UNL1        0.0039
     19 C          63.6123   83.4194   11.7862 C.ar    1  UNL1        0.0716
     20 C          62.5545   84.4822   11.7468 C.ar    1  UNL1        0.0084
     21 C          63.9010   82.6958   13.0680 C.3     1  UNL1        0.4186
     22 F          64.1897   81.9721   14.3498 F       1  UNL1       -0.1659
     23 F          64.5355   83.9356   13.6250 F       1  UNL1       -0.1659
     24 F          63.2665   81.4560   12.5109 F       1  UNL1       -0.1659
     25 C          60.8502   92.4022    3.4777 C.3     1  UNL1        0.0897
     26 C          60.3375   93.1981    2.3142 C.3     1  UNL1        0.0897
     27 N          61.2676   93.5870    1.2035 N.3     1  UNL1       -0.2686
     28 C          61.0409   93.0618   -0.1831 C.3     1  UNL1        0.0939
     29 C          61.9710   93.4507   -1.2939 C.3     1  UNL1        0.1110
     30 N          63.1278   94.3649   -1.0178 N.am    1  UNL1       -0.2732
     31 C          64.0579   94.7538   -2.1286 C.2     1  UNL1        0.2513
     32 O          65.2147   95.6680   -1.8526 O.2     1  UNL1       -0.2698
     33 C          63.3545   94.8901    0.3688 C.3     1  UNL1        0.1110
     34 C          62.4244   94.5012    1.4795 C.3     1  UNL1        0.0939
     35 C          63.8312   94.2286   -3.5152 C.ar    1  UNL1        0.0810
     36 C          64.3719   92.8853   -3.9061 C.ar    1  UNL1        0.0068
     37 C          64.1452   92.3600   -5.2927 C.ar    1  UNL1        0.0003
     38 C          63.3777   93.1783   -6.2884 C.ar    1  UNL1        0.0023
     39 C          62.8370   94.5217   -5.8975 C.ar    1  UNL1        0.0298
     40 C          63.0637   95.0469   -4.5109 C.ar    1  UNL1        0.1445
     41 F          62.5230   96.3903   -4.1200 F       1  UNL1       -0.2040
@<TRIPOS>BOND
     1     6     7    2
     2     7    10    1
     3    10    11    1
     4    11    12   am
     5    12    13    2
     6    12    15    1
     7    15    16   ar
     8    16    17   ar
     9    17    18   ar
    10    18    19   ar
    11    19    21    1
    12    21    22    1
    13    21    23    1
    14    21    24    1
    15    19    20   ar
    16     7     8   am
    17     1     8    1
    18     1     2    1
    19     2     3    1
    20     3     4    1
    21     4    25    1
    22    25    26    1
    23    26    27    1
    24    27    28    1
    25    28    29    1
    26    29    30    1
    27    30    31   am
    28    31    32    2
    29    31    35    1
    30    35    36   ar
    31    36    37   ar
    32    37    38   ar
    33    38    39   ar
    34    39    40   ar
    35    40    41    1
    36    30    33    1
    37    33    34    1
    38     4     5    1
    39    20    15   ar
    40     5     1    1
    41    34    27    1
    42    40    35   ar
    43    11    14    1
    44     8     9    1
@<TRIPOS>MOLECULE
*****
 41 44 0 0 0
SMALL
GASTEIGER

@<TRIPOS>ATOM
      1 C          60.9689   90.1328   10.3926 C.3     1  UNL1        0.0889
      2 C          60.1375   89.7950   11.5945 C.3     1  UNL1        0.0383
      3 C          61.0345   89.8061   12.7966 C.3     1  UNL1        0.0739
      4 N          62.4204   90.1508   12.3377 N.3     1  UNL1       -0.2700
      5 C          62.3798   90.3526   10.8519 C.3     1  UNL1        0.0919
      6 O          59.5942   87.7929    9.1137 O.2     1  UNL1       -0.2733
      7 C          59.7886   89.0632    8.3400 C.2     1  UNL1        0.2425
      8 N          60.4760   90.2331    8.9794 N.am    1  UNL1       -0.3032
      9 H          60.6036   91.0668    8.4716 H       1  UNL1        0.1495
     10 C          59.2957   89.1635    6.9269 C.3     1  UNL1        0.1759
     11 N          60.1193   89.8741    5.8940 N.am    1  UNL1       -0.2931
     12 C          59.5321   91.0205    5.1253 C.2     1  UNL1        0.2462
     13 O          58.1214   91.4564    5.3894 O.2     1  UNL1       -0.2701
     14 H          61.0452   89.5880    5.7206 H       1  UNL1        0.1502
     15 C          60.3557   91.7311    4.0923 C.ar    1  UNL1        0.0533
     16 C          61.7959   91.3603    3.8963 C.ar    1  UNL1        0.0045
     17 C          62.6193   92.0709    2.8635 C.ar    1  UNL1        0.0001
     18 C          62.0027   93.1522    2.0265 C.ar    1  UNL1        0.0039
     19 C          60.5625   93.5230    2.2225 C.ar    1  UNL1        0.0716
     20 C          59.7391   92.8124    3.2554 C.ar    1  UNL1        0.0084
     21 C          59.9459   94.6043    1.3856 C.3     1  UNL1        0.4186
     22 F          59.3292   95.6857    0.5487 F       1  UNL1       -0.1659
     23 F          59.7058   93.6149    0.2841 F       1  UNL1       -0.1659
     24 F          60.1860   95.5938    2.4871 F       1  UNL1       -0.1659
     25 C          63.6338   90.2722   13.2111 C.3     1  UNL1        0.0897
     26 C          63.7212   89.4878   14.4867 C.3     1  UNL1        0.0897
     27 N          63.7761   87.9894   14.4435 N.3     1  UNL1       -0.2686
     28 C          63.5655   87.2684   13.1451 C.3     1  UNL1        0.0939
     29 C          63.6204   85.7700   13.1018 C.3     1  UNL1        0.1110
     30 N          63.8859   84.9927   14.3570 N.am    1  UNL1       -0.2732
     31 C          63.9408   83.4943   14.3137 C.2     1  UNL1        0.2513
     32 O          64.2063   82.7170   15.5688 O.2     1  UNL1       -0.2698
     33 C          64.0965   85.7138   15.6554 C.3     1  UNL1        0.1110
     34 C          64.0416   87.2121   15.6986 C.3     1  UNL1        0.0939
     35 C          63.7302   82.7733   13.0154 C.ar    1  UNL1        0.0810
     36 C          64.5240   83.1628   11.8038 C.ar    1  UNL1        0.0068
     37 C          64.3134   82.4418   10.5055 C.ar    1  UNL1        0.0003
     38 C          63.3089   81.3312   10.4187 C.ar    1  UNL1        0.0023
     39 C          62.5150   80.9416   11.6303 C.ar    1  UNL1        0.0298
     40 C          62.7256   81.6626   12.9287 C.ar    1  UNL1        0.1445
     41 F          61.9318   81.2731   14.1402 F       1  UNL1       -0.2040
@<TRIPOS>BOND
     1     6     7    2
     2     7    10    1
     3    10    11    1
     4    11    12   am
     5    12    13    2
     6    12    15    1
     7    15    16   ar
     8    16    17   ar
     9    17    18   ar
    10    18    19   ar
    11    19    21    1
    12    21    22    1
    13    21    23    1
    14    21    24    1
    15    19    20   ar
    16     7     8   am
    17     1     8    1
    18     1     2    1
    19     2     3    1
    20     3     4    1
    21     4    25    1
    22    25    26    1
    23    26    27    1
    24    27    28    1
    25    28    29    1
    26    29    30    1
    27    30    31   am
    28    31    32    2
    29    31    35    1
    30    35    36   ar
    31    36    37   ar
    32    37    38   ar
    33    38    39   ar
    34    39    40   ar
    35    40    41    1
    36    30    33    1
    37    33    34    1
    38     4     5    1
    39    20    15   ar
    40     5     1    1
    41    34    27    1
    42    40    35   ar
    43    11    14    1
    44     8     9    1
@<TRIPOS>MOLECULE
*****
 41 44 0 0 0
SMALL
GASTEIGER

@<TRIPOS>ATOM
      1 C          61.4785   87.2201    9.7647 C.3     1  UNL1        0.0889
      2 C          61.5011   85.8149   10.2890 C.3     1  UNL1        0.0383
      3 C          62.2662   85.8138   11.5791 C.3     1  UNL1        0.0739
      4 N          62.7166   87.2183   11.8522 N.3     1  UNL1       -0.2700
      5 C          62.2298   88.0874   10.7308 C.3     1  UNL1        0.0919
      6 O          59.7976   89.7050    9.7594 O.2     1  UNL1       -0.2733
      7 C          59.9798   88.9201    8.4942 C.2     1  UNL1        0.2425
      8 N          60.8203   87.6777    8.4968 N.am    1  UNL1       -0.3032
      9 H          60.9399   87.1626    7.6664 H       1  UNL1        0.1495
     10 C          59.3216   89.3776    7.2264 C.3     1  UNL1        0.1759
     11 N          60.1317   90.0622    6.1655 N.am    1  UNL1       -0.2931
     12 C          59.4725   91.0250    5.2230 C.2     1  UNL1        0.2462
     13 O          58.0033   91.3033    5.3413 O.2     1  UNL1       -0.2701
     14 H          61.0959   89.8795    6.0879 H       1  UNL1        0.1502
     15 C          60.2825   91.7095    4.1621 C.ar    1  UNL1        0.0533
     16 C          61.7214   91.3371    3.9600 C.ar    1  UNL1        0.0045
     17 C          62.5313   92.0216    2.8991 C.ar    1  UNL1        0.0001
     18 C          61.9024   93.0785    2.0405 C.ar    1  UNL1        0.0039
     19 C          60.4635   93.4510    2.2426 C.ar    1  UNL1        0.0716
     20 C          59.6536   92.7665    3.3034 C.ar    1  UNL1        0.0084
     21 C          59.8346   94.5079    1.3840 C.3     1  UNL1        0.4186
     22 F          59.2056   95.5649    0.5253 F       1  UNL1       -0.1659
     23 F          59.1380   93.4455    0.5864 F       1  UNL1       -0.1659
     24 F          60.5311   95.5703    2.1815 F       1  UNL1       -0.1659
     25 C          63.5139   87.6737   13.0384 C.3     1  UNL1        0.0897
     26 C          63.1592   88.9548   13.7332 C.3     1  UNL1        0.0897
     27 N          63.9836   90.1865   13.5020 N.3     1  UNL1       -0.2686
     28 C          63.9840   90.8467   12.1551 C.3     1  UNL1        0.0939
     29 C          64.8083   92.0784   11.9238 C.3     1  UNL1        0.1110
     30 N          65.6322   92.6498   13.0395 N.am    1  UNL1       -0.2732
     31 C          66.4566   93.8815   12.8082 C.2     1  UNL1        0.2513
     32 O          67.2805   94.4529   13.9239 O.2     1  UNL1       -0.2698
     33 C          65.6318   91.9896   14.3864 C.3     1  UNL1        0.1110
     34 C          64.8075   90.7579   14.6176 C.3     1  UNL1        0.0939
     35 C          66.4570   94.5417   11.4614 C.ar    1  UNL1        0.0810
     36 C          65.7828   95.8688   11.2764 C.ar    1  UNL1        0.0068
     37 C          65.7832   96.5290    9.9295 C.ar    1  UNL1        0.0003
     38 C          66.4579   95.8621    8.7676 C.ar    1  UNL1        0.0023
     39 C          67.1321   94.5349    8.9526 C.ar    1  UNL1        0.0298
     40 C          67.1317   93.8747   10.2995 C.ar    1  UNL1        0.1445
     41 F          67.8059   92.5477   10.4844 F       1  UNL1       -0.2040
@<TRIPOS>BOND
     1     6     7    2
     2     7    10    1
     3    10    11    1
     4    11    12   am
     5    12    13    2
     6    12    15    1
     7    15    16   ar
     8    16    17   ar
     9    17    18   ar
    10    18    19   ar
    11    19    21    1
    12    21    22    1
    13    21    23    1
    14    21    24    1
    15    19    20   ar
    16     7     8   am
    17     1     8    1
    18     1     2    1
    19     2     3    1
    20     3     4    1
    21     4    25    1
    22    25    26    1
    23    26    27    1
    24    27    28    1
    25    28    29    1
    26    29    30    1
    27    30    31   am
    28    31    32    2
    29    31    35    1
    30    35    36   ar
    31    36    37   ar
    32    37    38   ar
    33    38    39   ar
    34    39    40   ar
    35    40    41    1
    36    30    33    1
    37    33    34    1
    38     4     5    1
    39    20    15   ar
    40     5     1    1
    41    34    27    1
    42    40    35   ar
    43    11    14    1
    44     8     9    1
