@<TRIPOS>MOLECULE
*****
 24 27 0 0 0
SMALL
GASTEIGER

@<TRIPOS>ATOM
      1 N          62.4484   90.5879   11.3084 N.3     1  UNL1       -0.1490
      2 C          63.2816   91.4758   10.4322 C.3     1  UNL1        0.1409
      3 C          64.5878   92.0143   10.9360 C.ar    1  UNL1        0.0770
      4 C          65.6162   92.9055   10.3052 C.ar    1  UNL1        0.1148
      5 N          66.7250   93.1069   11.2952 N.ar    1  UNL1       -0.2226
      6 C          66.3817   92.3401   12.5379 C.ar    1  UNL1        0.1796
      7 N          65.0608   91.6649   12.3159 N.ar    1  UNL1       -0.2923
      8 C          64.2277   90.7769   13.1920 C.3     1  UNL1        0.2337
      9 S          62.9215   90.2385   12.6882 S.O2    1  UNL1        0.0628
     10 O          61.6230   89.4881   12.6602 O.2     1  UNL1       -0.1555
     11 O          62.9436   89.6284   14.0583 O.2     1  UNL1       -0.1555
     12 C          59.8553   90.7093   11.2026 C.3     1  UNL1        0.0240
     13 C          61.1422   90.0494   10.8045 C.3     1  UNL1        0.1019
     14 C          61.1228   88.8510    9.9026 C.ar    1  UNL1       -0.0061
     15 C          60.0043   88.6701    8.9197 C.ar    1  UNL1       -0.0021
     16 C          59.9850   87.4716    8.0177 C.ar    1  UNL1        0.0111
     17 C          61.0841   86.4542    8.0987 C.ar    1  UNL1        0.0577
     18 CL         61.0649   85.2558    7.1968 Cl      1  UNL1       -0.0822
     19 C          62.2027   86.6352    9.0817 C.ar    1  UNL1        0.0111
     20 C          62.2220   87.8335    9.9836 C.ar    1  UNL1       -0.0021
     21 C          64.7008   90.4275   14.5719 C.3     1  UNL1        0.0490
     22 C          65.0884   91.5149   15.5297 C.3     1  UNL1        0.0037
     23 C          64.7807   92.3577   16.7317 C.3     1  UNL1        0.0001
     24 C          66.0675   92.5554   15.9865 C.3     1  UNL1        0.0001
@<TRIPOS>BOND
     1    13    12    1
     2    13    14    1
     3    14    15   ar
     4    15    16   ar
     5    16    17   ar
     6    17    18    1
     7    17    19   ar
     8    19    20   ar
     9    13     1    1
    10     1     2    1
    11     2     3    1
    12     3     4   ar
    13     4     5   ar
    14     5     6   ar
    15     6     7   ar
    16     7     8    1
    17     8    21    1
    18    21    22    1
    19    22    23    1
    20    23    24    1
    21     8     9    1
    22     9    10    2
    23     9    11    2
    24    20    14   ar
    25     9     1    1
    26     7     3   ar
    27    24    22    1
@<TRIPOS>MOLECULE
*****
 24 27 0 0 0
SMALL
GASTEIGER

@<TRIPOS>ATOM
      1 N          62.6686   89.2082   12.1145 N.3     1  UNL1       -0.1490
      2 C          61.7673   89.7317   11.0356 C.3     1  UNL1        0.1409
      3 C          61.0699   88.7772   10.1124 C.ar    1  UNL1        0.0770
      4 C          60.1291   88.9972    8.9650 C.ar    1  UNL1        0.1148
      5 N          59.7514   87.6552    8.4115 N.ar    1  UNL1       -0.2226
      6 C          60.4588   86.6058    9.2167 C.ar    1  UNL1        0.1796
      7 N          61.2737   87.2992   10.2680 N.ar    1  UNL1       -0.2923
      8 C          62.1749   86.7758   11.3468 C.3     1  UNL1        0.2337
      9 S          62.8723   87.7304   12.2701 S.O2    1  UNL1        0.0628
     10 O          63.7459   88.2321   13.3814 O.2     1  UNL1       -0.1555
     11 O          63.3795   86.4267   12.8116 O.2     1  UNL1       -0.1555
     12 C          63.1564   90.0614   14.5196 C.3     1  UNL1        0.0240
     13 C          63.3661   90.1628   13.0378 C.3     1  UNL1        0.1019
     14 C          64.2732   91.2188   12.4793 C.ar    1  UNL1       -0.0061
     15 C          64.1387   91.6419   11.0465 C.ar    1  UNL1       -0.0021
     16 C          65.0459   92.6979   10.4880 C.ar    1  UNL1        0.0111
     17 C          66.0876   93.3307   11.3622 C.ar    1  UNL1        0.0577
     18 CL         66.9948   94.3867   10.8037 Cl      1  UNL1       -0.0822
     19 C          66.2221   92.9076   12.7950 C.ar    1  UNL1        0.0111
     20 C          65.3150   91.8517   13.3536 C.ar    1  UNL1       -0.0021
     21 C          62.3786   85.2979   11.5024 C.3     1  UNL1        0.0490
     22 C          63.0906   84.5224   10.4340 C.3     1  UNL1        0.0037
     23 C          63.5028   84.3632    9.0005 C.3     1  UNL1        0.0001
     24 C          63.9116   83.3383   10.0168 C.3     1  UNL1        0.0001
@<TRIPOS>BOND
     1    13    12    1
     2    13    14    1
     3    14    15   ar
     4    15    16   ar
     5    16    17   ar
     6    17    18    1
     7    17    19   ar
     8    19    20   ar
     9    13     1    1
    10     1     2    1
    11     2     3    1
    12     3     4   ar
    13     4     5   ar
    14     5     6   ar
    15     6     7   ar
    16     7     8    1
    17     8    21    1
    18    21    22    1
    19    22    23    1
    20    23    24    1
    21     8     9    1
    22     9    10    2
    23     9    11    2
    24    20    14   ar
    25     9     1    1
    26     7     3   ar
    27    24    22    1
@<TRIPOS>MOLECULE
*****
 24 27 0 0 0
SMALL
GASTEIGER

@<TRIPOS>ATOM
      1 N          63.4611   86.6727   13.0785 N.3     1  UNL1       -0.1490
      2 C          62.6586   86.3292   11.8586 C.3     1  UNL1        0.1409
      3 C          62.1052   87.4220   10.9928 C.ar    1  UNL1        0.0770
      4 C          61.2837   87.3896    9.7381 C.ar    1  UNL1        0.1148
      5 N          61.0251   88.8057    9.3168 N.ar    1  UNL1       -0.2226
      6 C          61.6867   89.7134   10.3110 C.ar    1  UNL1        0.1796
      7 N          62.3543   88.8581   11.3469 N.ar    1  UNL1       -0.2923
      8 C          63.1568   89.2016   12.5667 C.3     1  UNL1        0.2337
      9 S          63.7101   88.1088   13.4325 S.O2    1  UNL1        0.0628
     10 O          64.4378   87.4334   14.5569 O.2     1  UNL1       -0.1555
     11 O          64.2120   89.3104   14.1771 O.2     1  UNL1       -0.1555
     12 C          65.0161   85.9042   15.0128 C.3     1  UNL1        0.0240
     13 C          64.0145   85.5799   13.9443 C.3     1  UNL1        0.1019
     14 C          63.5664   84.1628   13.7417 C.ar    1  UNL1       -0.0061
     15 C          64.2569   83.2950   12.7317 C.ar    1  UNL1       -0.0021
     16 C          63.8087   81.8779   12.5291 C.ar    1  UNL1        0.0111
     17 C          62.6700   81.3287   13.3363 C.ar    1  UNL1        0.0577
     18 CL         62.2218   79.9117   13.1337 Cl      1  UNL1       -0.0822
     19 C          61.9794   82.1966   14.3463 C.ar    1  UNL1        0.0111
     20 C          62.4276   83.6137   14.5490 C.ar    1  UNL1       -0.0021
     21 C          63.4058   90.6377   12.9208 C.3     1  UNL1        0.0490
     22 C          64.2597   91.4922   12.0316 C.3     1  UNL1        0.0037
     23 C          64.5712   92.0480   10.6737 C.3     1  UNL1        0.0001
     24 C          65.4271   92.4164   11.8493 C.3     1  UNL1        0.0001
@<TRIPOS>BOND
     1    13    12    1
     2    13    14    1
     3    14    15   ar
     4    15    16   ar
     5    16    17   ar
     6    17    18    1
     7    17    19   ar
     8    19    20   ar
     9    13     1    1
    10     1     2    1
    11     2     3    1
    12     3     4   ar
    13     4     5   ar
    14     5     6   ar
    15     6     7   ar
    16     7     8    1
    17     8    21    1
    18    21    22    1
    19    22    23    1
    20    23    24    1
    21     8     9    1
    22     9    10    2
    23     9    11    2
    24    20    14   ar
    25     9     1    1
    26     7     3   ar
    27    24    22    1
@<TRIPOS>MOLECULE
*****
 24 27 0 0 0
SMALL
GASTEIGER

@<TRIPOS>ATOM
      1 N          62.8013   88.2830   12.3719 N.3     1  UNL1       -0.1490
      2 C          63.6269   88.0193   13.5963 C.3     1  UNL1        0.1409
      3 C          64.0112   86.6140   13.9533 C.ar    1  UNL1        0.0770
      4 C          64.8119   86.0504   15.0897 C.ar    1  UNL1        0.1148
      5 N          64.8656   84.5605   14.9246 N.ar    1  UNL1       -0.2226
      6 C          64.0981   84.2033   13.6863 C.ar    1  UNL1        0.1796
      7 N          63.5701   85.4725   13.0860 N.ar    1  UNL1       -0.2923
      8 C          62.7446   85.7362   11.8617 C.3     1  UNL1        0.2337
      9 S          62.3602   87.1414   11.5047 S.O2    1  UNL1        0.0628
     10 O          61.7489   88.2886   10.7561 O.2     1  UNL1       -0.1555
     11 O          61.7067   86.3983   10.3774 O.2     1  UNL1       -0.1555
     12 C          60.9750   90.0387   11.7957 C.3     1  UNL1        0.0240
     13 C          62.4169   89.6883   12.0149 C.3     1  UNL1        0.1019
     14 C          63.4744   90.7431   11.8771 C.ar    1  UNL1       -0.0061
     15 C          63.7218   91.3877   10.5454 C.ar    1  UNL1       -0.0021
     16 C          64.7793   92.4426   10.4077 C.ar    1  UNL1        0.0111
     17 C          65.5895   92.8527   11.6015 C.ar    1  UNL1        0.0577
     18 CL         66.6471   93.9075   11.4638 Cl      1  UNL1       -0.0822
     19 C          65.3422   92.2081   12.9332 C.ar    1  UNL1        0.0111
     20 C          64.2846   91.1533   13.0710 C.ar    1  UNL1       -0.0021
     21 C          62.3034   84.5946   10.9944 C.3     1  UNL1        0.0490
     22 C          63.2392   83.4544   10.7220 C.3     1  UNL1        0.0037
     23 C          63.5355   81.9841   10.7413 C.3     1  UNL1        0.0001
     24 C          64.5637   82.9498   10.2310 C.3     1  UNL1        0.0001
@<TRIPOS>BOND
     1    13    12    1
     2    13    14    1
     3    14    15   ar
     4    15    16   ar
     5    16    17   ar
     6    17    18    1
     7    17    19   ar
     8    19    20   ar
     9    13     1    1
    10     1     2    1
    11     2     3    1
    12     3     4   ar
    13     4     5   ar
    14     5     6   ar
    15     6     7   ar
    16     7     8    1
    17     8    21    1
    18    21    22    1
    19    22    23    1
    20    23    24    1
    21     8     9    1
    22     9    10    2
    23     9    11    2
    24    20    14   ar
    25     9     1    1
    26     7     3   ar
    27    24    22    1
@<TRIPOS>MOLECULE
*****
 24 27 0 0 0
SMALL
GASTEIGER

@<TRIPOS>ATOM
      1 N          64.1563   90.4926   12.6003 N.3     1  UNL1       -0.1490
      2 C          64.4906   91.3381   11.4072 C.3     1  UNL1        0.1409
      3 C          65.2745   92.6049   11.5817 C.ar    1  UNL1        0.0770
      4 C          65.7496   93.6346   10.5998 C.ar    1  UNL1        0.1148
      5 N          66.4928   94.6923   11.3606 N.ar    1  UNL1       -0.2226
      6 C          66.4770   94.3165   12.8126 C.ar    1  UNL1        0.1796
      7 N          65.7241   93.0264   12.9493 N.ar    1  UNL1       -0.2923
      8 C          65.3897   92.1809   14.1424 C.3     1  UNL1        0.2337
      9 S          64.6058   90.9140   13.9678 S.O2    1  UNL1        0.0628
     10 O          63.8919   89.6398   14.3095 O.2     1  UNL1       -0.1555
     11 O          64.8074   90.8929   15.4541 O.2     1  UNL1       -0.1555
     12 C          63.5962   88.0709   13.3567 C.3     1  UNL1        0.0240
     13 C          63.3723   89.2256   12.4258 C.3     1  UNL1        0.1019
     14 C          62.3646   89.1135   11.3204 C.ar    1  UNL1       -0.0061
     15 C          62.4145   87.9497   10.3753 C.ar    1  UNL1       -0.0021
     16 C          61.4067   87.8376    9.2699 C.ar    1  UNL1        0.0111
     17 C          60.3492   88.8891    9.1096 C.ar    1  UNL1        0.0577
     18 CL         59.3414   88.7770    8.0043 Cl      1  UNL1       -0.0822
     19 C          60.2993   90.0529   10.0548 C.ar    1  UNL1        0.0111
     20 C          61.3070   90.1651   11.1602 C.ar    1  UNL1       -0.0021
     21 C          65.8393   92.6023   15.5100 C.3     1  UNL1        0.0490
     22 C          67.2978   92.8161   15.7873 C.3     1  UNL1        0.0037
     23 C          68.4778   93.7354   15.8985 C.3     1  UNL1        0.0001
     24 C          68.6441   92.2670   16.1564 C.3     1  UNL1        0.0001
@<TRIPOS>BOND
     1    13    12    1
     2    13    14    1
     3    14    15   ar
     4    15    16   ar
     5    16    17   ar
     6    17    18    1
     7    17    19   ar
     8    19    20   ar
     9    13     1    1
    10     1     2    1
    11     2     3    1
    12     3     4   ar
    13     4     5   ar
    14     5     6   ar
    15     6     7   ar
    16     7     8    1
    17     8    21    1
    18    21    22    1
    19    22    23    1
    20    23    24    1
    21     8     9    1
    22     9    10    2
    23     9    11    2
    24    20    14   ar
    25     9     1    1
    26     7     3   ar
    27    24    22    1
@<TRIPOS>MOLECULE
*****
 24 27 0 0 0
SMALL
GASTEIGER

@<TRIPOS>ATOM
      1 N          63.5549   88.2401   13.5218 N.3     1  UNL1       -0.1490
      2 C          62.7575   88.2082   12.2516 C.3     1  UNL1        0.1409
      3 C          62.4930   86.9011   11.5649 C.ar    1  UNL1        0.0770
      4 C          61.7453   86.5599   10.3101 C.ar    1  UNL1        0.1148
      5 N          61.8159   85.0739   10.1181 N.ar    1  UNL1       -0.2226
      6 C          62.6073   84.4968   11.2541 C.ar    1  UNL1        0.1796
      7 N          63.0257   85.6260   12.1483 N.ar    1  UNL1       -0.2923
      8 C          63.8230   85.6581   13.4185 C.3     1  UNL1        0.2337
      9 S          64.0876   86.9651   14.1052 S.O2    1  UNL1        0.0628
     10 O          64.5989   87.9479   15.1165 O.2     1  UNL1       -0.1555
     11 O          64.7979   86.0314   15.0398 O.2     1  UNL1       -0.1555
     12 C          63.3522   89.7623   15.6175 C.3     1  UNL1        0.0240
     13 C          63.8195   89.5473   14.2085 C.3     1  UNL1        0.1019
     14 C          64.5514   90.6393   13.4862 C.ar    1  UNL1       -0.0061
     15 C          64.0222   91.1628   12.1839 C.ar    1  UNL1       -0.0021
     16 C          64.7541   92.2549   11.4616 C.ar    1  UNL1        0.0111
     17 C          66.0152   92.8234   12.0415 C.ar    1  UNL1        0.0577
     18 CL         66.7472   93.9154   11.3193 Cl      1  UNL1       -0.0822
     19 C          66.5445   92.2998   13.3438 C.ar    1  UNL1        0.0111
     20 C          65.8126   91.2078   14.0662 C.ar    1  UNL1       -0.0021
     21 C          64.3558   84.3830   14.0019 C.3     1  UNL1        0.0490
     22 C          63.4869   83.1614   14.0540 C.3     1  UNL1        0.0037
     23 C          63.2592   81.7146   13.7305 C.3     1  UNL1        0.0001
     24 C          62.2095   82.4925   14.4675 C.3     1  UNL1        0.0001
@<TRIPOS>BOND
     1    13    12    1
     2    13    14    1
     3    14    15   ar
     4    15    16   ar
     5    16    17   ar
     6    17    18    1
     7    17    19   ar
     8    19    20   ar
     9    13     1    1
    10     1     2    1
    11     2     3    1
    12     3     4   ar
    13     4     5   ar
    14     5     6   ar
    15     6     7   ar
    16     7     8    1
    17     8    21    1
    18    21    22    1
    19    22    23    1
    20    23    24    1
    21     8     9    1
    22     9    10    2
    23     9    11    2
    24    20    14   ar
    25     9     1    1
    26     7     3   ar
    27    24    22    1
@<TRIPOS>MOLECULE
*****
 24 27 0 0 0
SMALL
GASTEIGER

@<TRIPOS>ATOM
      1 N          63.1279   90.4708   12.0753 N.3     1  UNL1       -0.1490
      2 C          63.4650   90.4818   13.5370 C.3     1  UNL1        0.1409
      3 C          64.5818   91.3461   14.0426 C.ar    1  UNL1        0.0770
      4 C          65.1392   91.5630   15.4182 C.ar    1  UNL1        0.1148
      5 N          66.2633   92.5505   15.3123 N.ar    1  UNL1       -0.2226
      6 C          66.4007   92.9439   13.8713 C.ar    1  UNL1        0.1796
      7 N          65.3614   92.1995   13.0866 N.ar    1  UNL1       -0.2923
      8 C          65.0242   92.1886   11.6250 C.3     1  UNL1        0.2337
      9 S          63.9075   91.3242   11.1194 S.O2    1  UNL1        0.0628
     10 O          62.9454   90.6783   10.1669 O.2     1  UNL1       -0.1555
     11 O          64.3529   91.9532    9.8326 O.2     1  UNL1       -0.1555
     12 C          60.6527   90.1976   11.3342 C.3     1  UNL1        0.0240
     13 C          62.0110   89.6064   11.5697 C.3     1  UNL1        0.1019
     14 C          62.2525   88.1508   11.2996 C.ar    1  UNL1       -0.0061
     15 C          62.8442   87.2781   12.3665 C.ar    1  UNL1       -0.0021
     16 C          63.0857   85.8225   12.0963 C.ar    1  UNL1        0.0111
     17 C          62.7356   85.2397   10.7593 C.ar    1  UNL1        0.0577
     18 CL         62.9771   83.7842   10.4890 Cl      1  UNL1       -0.0822
     19 C          62.1439   86.1125    9.6923 C.ar    1  UNL1        0.0111
     20 C          61.9024   87.5681    9.9625 C.ar    1  UNL1       -0.0021
     21 C          65.8039   93.0420   10.6690 C.3     1  UNL1        0.0490
     22 C          65.7878   94.5350   10.8120 C.3     1  UNL1        0.0037
     23 C          66.1054   95.7674   11.6058 C.3     1  UNL1        0.0001
     24 C          65.4424   95.8887   10.2657 C.3     1  UNL1        0.0001
@<TRIPOS>BOND
     1    13    12    1
     2    13    14    1
     3    14    15   ar
     4    15    16   ar
     5    16    17   ar
     6    17    18    1
     7    17    19   ar
     8    19    20   ar
     9    13     1    1
    10     1     2    1
    11     2     3    1
    12     3     4   ar
    13     4     5   ar
    14     5     6   ar
    15     6     7   ar
    16     7     8    1
    17     8    21    1
    18    21    22    1
    19    22    23    1
    20    23    24    1
    21     8     9    1
    22     9    10    2
    23     9    11    2
    24    20    14   ar
    25     9     1    1
    26     7     3   ar
    27    24    22    1
@<TRIPOS>MOLECULE
*****
 24 27 0 0 0
SMALL
GASTEIGER

@<TRIPOS>ATOM
      1 N          63.7108   88.1622   13.9019 N.3     1  UNL1       -0.1490
      2 C          64.4606   87.0481   14.5703 C.3     1  UNL1        0.1409
      3 C          64.3399   85.6459   14.0514 C.ar    1  UNL1        0.0770
      4 C          64.9542   84.3532   14.5003 C.ar    1  UNL1        0.1148
      5 N          64.4635   83.2663   13.5905 N.ar    1  UNL1       -0.2226
      6 C          63.5459   83.8871   12.5793 C.ar    1  UNL1        0.1796
      7 N          63.4695   85.3579   12.8641 N.ar    1  UNL1       -0.2923
      8 C          62.7198   86.4720   12.1958 C.3     1  UNL1        0.2337
      9 S          62.8405   87.8742   12.7147 S.O2    1  UNL1        0.0628
     10 O          62.6340   89.3550   12.8359 O.2     1  UNL1       -0.1555
     11 O          61.8984   88.1004   11.5696 O.2     1  UNL1       -0.1555
     12 C          63.1736   89.9449   15.7140 C.3     1  UNL1        0.0240
     13 C          63.8315   89.5645   14.4208 C.3     1  UNL1        0.1019
     14 C          64.6101   90.5864   13.6465 C.ar    1  UNL1       -0.0061
     15 C          64.0626   91.1297   12.3600 C.ar    1  UNL1       -0.0021
     16 C          64.8413   92.1516   11.5857 C.ar    1  UNL1        0.0111
     17 C          66.1674   92.6300   12.0978 C.ar    1  UNL1        0.0577
     18 CL         66.9461   93.6519   11.3236 Cl      1  UNL1       -0.0822
     19 C          66.7150   92.0867   13.3844 C.ar    1  UNL1        0.0111
     20 C          65.9363   91.0648   14.1587 C.ar    1  UNL1       -0.0021
     21 C          61.8494   86.1840   11.0086 C.3     1  UNL1        0.0490
     22 C          62.4487   85.6015    9.7630 C.3     1  UNL1        0.0037
     23 C          63.3485   84.6016    9.0992 C.3     1  UNL1        0.0001
     24 C          62.5868   85.5923    8.2694 C.3     1  UNL1        0.0001
@<TRIPOS>BOND
     1    13    12    1
     2    13    14    1
     3    14    15   ar
     4    15    16   ar
     5    16    17   ar
     6    17    18    1
     7    17    19   ar
     8    19    20   ar
     9    13     1    1
    10     1     2    1
    11     2     3    1
    12     3     4   ar
    13     4     5   ar
    14     5     6   ar
    15     6     7   ar
    16     7     8    1
    17     8    21    1
    18    21    22    1
    19    22    23    1
    20    23    24    1
    21     8     9    1
    22     9    10    2
    23     9    11    2
    24    20    14   ar
    25     9     1    1
    26     7     3   ar
    27    24    22    1
@<TRIPOS>MOLECULE
*****
 24 27 0 0 0
SMALL
GASTEIGER

@<TRIPOS>ATOM
      1 N          63.2953   88.7665   12.9385 N.3     1  UNL1       -0.1490
      2 C          62.4291   88.8682   11.7180 C.3     1  UNL1        0.1409
      3 C          62.0047   87.6250   10.9939 C.ar    1  UNL1        0.0770
      4 C          61.1595   87.4138    9.7729 C.ar    1  UNL1        0.1148
      5 N          61.0790   85.9384    9.5145 N.ar    1  UNL1       -0.2226
      6 C          61.8744   85.2378   10.5758 C.ar    1  UNL1        0.1796
      7 N          62.4466   86.2802   11.4902 N.ar    1  UNL1       -0.2923
      8 C          63.3128   86.1785   12.7105 C.3     1  UNL1        0.2337
      9 S          63.7372   87.4217   13.4347 S.O2    1  UNL1        0.0628
     10 O          64.3943   88.3043   14.4541 O.2     1  UNL1       -0.1555
     11 O          64.4072   86.3834   14.2850 O.2     1  UNL1       -0.1555
     12 C          63.3577   90.1974   15.1061 C.3     1  UNL1        0.0240
     13 C          63.7198   90.0097   13.6626 C.3     1  UNL1        0.1019
     14 C          64.5061   91.0652   12.9433 C.ar    1  UNL1       -0.0061
     15 C          65.6812   91.7127   13.6140 C.ar    1  UNL1       -0.0021
     16 C          66.4676   92.7682   12.8946 C.ar    1  UNL1        0.0111
     17 C          66.0789   93.1762   11.5045 C.ar    1  UNL1        0.0577
     18 CL         66.8653   94.2317   10.7850 Cl      1  UNL1       -0.0822
     19 C          64.9038   92.5287   10.8337 C.ar    1  UNL1        0.0111
     20 C          64.1174   91.4732   11.5531 C.ar    1  UNL1       -0.0021
     21 C          63.7546   84.8337   13.2068 C.3     1  UNL1        0.0490
     22 C          62.9216   84.0942   14.2113 C.3     1  UNL1        0.0037
     23 C          61.9866   84.1058   15.3842 C.3     1  UNL1        0.0001
     24 C          62.4138   82.8016   14.7784 C.3     1  UNL1        0.0001
@<TRIPOS>BOND
     1    13    12    1
     2    13    14    1
     3    14    15   ar
     4    15    16   ar
     5    16    17   ar
     6    17    18    1
     7    17    19   ar
     8    19    20   ar
     9    13     1    1
    10     1     2    1
    11     2     3    1
    12     3     4   ar
    13     4     5   ar
    14     5     6   ar
    15     6     7   ar
    16     7     8    1
    17     8    21    1
    18    21    22    1
    19    22    23    1
    20    23    24    1
    21     8     9    1
    22     9    10    2
    23     9    11    2
    24    20    14   ar
    25     9     1    1
    26     7     3   ar
    27    24    22    1
