@<TRIPOS>MOLECULE
*****
 42 48 0 0 0
SMALL
GASTEIGER

@<TRIPOS>ATOM
      1 C          62.3990   85.9093   11.1053 C.3     1  UNL1        0.0048
      2 C          63.1407   86.0766   12.3983 C.3     1  UNL1        0.0321
      3 C          62.9147   84.7047   11.8354 C.3     1  UNL1        0.0528
      4 C          63.4305   83.5002   12.5656 C.3     1  UNL1        0.1948
      5 O          64.1722   83.6675   13.8585 O.3     1  UNL1       -0.4447
      6 C          64.3981   85.0394   14.4214 C.2     1  UNL1        0.3370
      7 O          65.1398   85.2068   15.7144 O.2     1  UNL1       -0.2453
      8 C          63.8824   86.2440   13.6914 C.2     1  UNL1        0.0488
      9 C          64.1083   87.6159   14.2542 C.2     1  UNL1       -0.0239
     10 C          63.5925   88.8204   13.5241 C.3     1  UNL1        0.0289
     11 C          62.8508   88.6530   12.2311 C.3     1  UNL1        0.0430
     12 C          63.0768   90.0249   12.7940 C.3     1  UNL1        0.0034
     13 C          62.6249   87.2812   11.6682 C.3     1  UNL1        0.0499
     14 C          61.8832   87.1138   10.3752 C.3     1  UNL1        0.1986
     15 O          62.0314   87.8453   10.7229 O.3     1  UNL1       -0.4480
     16 C          62.2357   89.0858   11.2319 C.2     1  UNL1        0.3440
     17 O          62.6241   88.9078   11.8750 O.2     1  UNL1       -0.2474
     18 C          62.3351   89.8576   11.5010 C.3     1  UNL1        0.2109
     19 C          61.5933   89.6902   10.2080 C.3     1  UNL1        0.1809
     20 O          60.8517   89.5229    8.9150 O.3     1  UNL1       -0.3468
     21 C          61.3674   88.3183    9.6451 C.3     1  UNL1        0.1849
     22 C          63.2046   82.1283   12.0027 C.ar    1  UNL1        0.0580
     23 C          63.3613   81.7281   10.5655 C.ar    1  UNL1        0.0430
     24 C          63.0358   80.2682   10.4527 C.ar    1  UNL1        0.1795
     25 O          62.6779   79.7660   11.8202 O.2     1  UNL1       -0.4475
     26 C          62.7822   80.9157   12.7780 C.ar    1  UNL1        0.1789
     27 O          62.5610   91.2295   12.0639 O.3     1  UNL1       -0.3201
     28 C          63.9382   91.6504   12.4838 C.3     1  UNL1        0.2661
     29 O          64.2958   91.7011   13.9396 O.3     1  UNL1       -0.3260
     30 C          65.6730   92.1221   14.3595 C.3     1  UNL1        0.1761
     31 C          66.6925   92.4923   13.3235 C.3     1  UNL1        0.1694
     32 O          68.0697   92.9132   13.7433 O.3     1  UNL1       -0.3794
     33 C          66.3349   92.4416   11.8675 C.3     1  UNL1        0.1715
     34 O          67.3545   92.8118   10.8315 O.3     1  UNL1       -0.3794
     35 C          64.9578   92.0207   11.4477 C.3     1  UNL1        0.1964
     36 O          64.6002   91.9700    9.9918 O.3     1  UNL1       -0.3775
     37 H          68.5995   93.1164   12.9566 H       1  UNL1        0.2105
     38 H          68.1849   93.0577   11.2684 H       1  UNL1        0.2105
     39 H          63.6794   91.6805    9.8949 H       1  UNL1        0.2106
     40 C          66.0305   92.1727   15.8153 C.3     1  UNL1        0.1693
     41 O          65.1141   92.8518   16.7895 O.3     1  UNL1       -0.3794
     42 H          65.0839   93.8020   16.5966 H       1  UNL1        0.2105
@<TRIPOS>BOND
     1     2     1    1
     2     2     3    1
     3     3     4    1
     4     4    22    1
     5    22    23   ar
     6    23    24   ar
     7    24    25   ar
     8    25    26   ar
     9     4     5    1
    10     5     6    1
    11     6     7    2
    12     6     8    1
    13     8     9    2
    14     9    10    1
    15    10    11    1
    16    11    12    1
    17    11    13    1
    18    13    14    1
    19    14    15    1
    20    15    16    1
    21    16    17    2
    22    16    18    1
    23    18    27    1
    24    28    27    1
    25    28    29    1
    26    29    30    1
    27    30    40    1
    28    40    41    1
    29    30    31    1
    30    31    32    1
    31    31    33    1
    32    33    34    1
    33    33    35    1
    34    35    36    1
    35    18    19    1
    36    19    20    1
    37    21    20    1
    38     8     2    1
    39    18    11    1
    40    35    28    1
    41    21    19    1
    42    13     2    1
    43    21    14    1
    44    26    22   ar
    45    41    42    1
    46    32    37    1
    47    34    38    1
    48    36    39    1
@<TRIPOS>MOLECULE
*****
 42 48 0 0 0
SMALL
GASTEIGER

@<TRIPOS>ATOM
      1 C          64.3334   91.7651   11.0905 C.3     1  UNL1        0.0048
      2 C          65.1049   91.9732   12.3599 C.3     1  UNL1        0.0321
      3 C          65.1757   92.9942   11.2633 C.3     1  UNL1        0.0528
      4 C          66.0181   94.2233   11.4362 C.3     1  UNL1        0.1948
      5 O          66.7896   94.4313   12.7056 O.3     1  UNL1       -0.4447
      6 C          66.7188   93.4103   13.8022 C.2     1  UNL1        0.3370
      7 O          67.4903   93.6184   15.0716 O.2     1  UNL1       -0.2453
      8 C          65.8765   92.1813   13.6294 C.2     1  UNL1        0.0488
      9 C          65.8057   91.1603   14.7260 C.2     1  UNL1       -0.0239
     10 C          64.9633   89.9312   14.5531 C.3     1  UNL1        0.0289
     11 C          64.1918   89.7231   13.2837 C.3     1  UNL1        0.0430
     12 C          64.1210   88.7021   14.3803 C.3     1  UNL1        0.0034
     13 C          64.2626   90.7441   12.1871 C.3     1  UNL1        0.0499
     14 C          63.4911   90.5361   10.9177 C.3     1  UNL1        0.1986
     15 O          63.4836   90.0046   11.5465 O.3     1  UNL1       -0.4480
     16 C          63.4196   89.0813   12.5381 C.2     1  UNL1        0.3440
     17 O          63.8852   89.4084   13.0601 O.2     1  UNL1       -0.2474
     18 C          63.3495   88.4941   13.1109 C.3     1  UNL1        0.2109
     19 C          62.5779   88.2860   11.8415 C.3     1  UNL1        0.1809
     20 O          61.8064   88.0779   10.5721 O.3     1  UNL1       -0.3468
     21 C          62.6487   89.3070   10.7449 C.3     1  UNL1        0.1849
     22 C          66.0889   95.2443   10.3396 C.ar    1  UNL1        0.0580
     23 C          67.3424   95.7820    9.7151 C.ar    1  UNL1        0.0430
     24 C          66.9468   96.7769    8.6644 C.ar    1  UNL1        0.1795
     25 O          65.4490   96.8540    8.6396 O.2     1  UNL1       -0.4475
     26 C          64.9188   95.9068    9.6748 C.ar    1  UNL1        0.1789
     27 O          63.2787   87.4731   14.2075 O.3     1  UNL1       -0.3201
     28 C          63.5627   86.0308   13.9089 C.3     1  UNL1        0.2661
     29 O          63.4256   85.5139   12.5075 O.3     1  UNL1       -0.3260
     30 C          63.7096   84.0716   12.2088 C.3     1  UNL1        0.1761
     31 C          64.1307   83.1462   13.3117 C.3     1  UNL1        0.1694
     32 O          64.4148   81.7039   13.0131 O.3     1  UNL1       -0.3794
     33 C          64.2679   83.6631   14.7131 C.3     1  UNL1        0.1715
     34 O          64.6891   82.7377   15.8160 O.3     1  UNL1       -0.3794
     35 C          63.9839   85.1054   15.0117 C.3     1  UNL1        0.1964
     36 O          64.1210   85.6223   16.4132 O.3     1  UNL1       -0.3775
     37 H          64.6725   81.2493   13.8302 H       1  UNL1        0.2105
     38 H          64.8315   81.8486   15.4553 H       1  UNL1        0.2105
     39 H          63.9024   86.5671   16.4322 H       1  UNL1        0.2106
     40 C          63.5724   83.5547   10.8074 C.3     1  UNL1        0.1693
     41 O          64.6649   82.7220   10.2048 O.3     1  UNL1       -0.3794
     42 H          65.4636   83.2626   10.1010 H       1  UNL1        0.2105
@<TRIPOS>BOND
     1     2     1    1
     2     2     3    1
     3     3     4    1
     4     4    22    1
     5    22    23   ar
     6    23    24   ar
     7    24    25   ar
     8    25    26   ar
     9     4     5    1
    10     5     6    1
    11     6     7    2
    12     6     8    1
    13     8     9    2
    14     9    10    1
    15    10    11    1
    16    11    12    1
    17    11    13    1
    18    13    14    1
    19    14    15    1
    20    15    16    1
    21    16    17    2
    22    16    18    1
    23    18    27    1
    24    28    27    1
    25    28    29    1
    26    29    30    1
    27    30    40    1
    28    40    41    1
    29    30    31    1
    30    31    32    1
    31    31    33    1
    32    33    34    1
    33    33    35    1
    34    35    36    1
    35    18    19    1
    36    19    20    1
    37    21    20    1
    38     8     2    1
    39    18    11    1
    40    35    28    1
    41    21    19    1
    42    13     2    1
    43    21    14    1
    44    26    22   ar
    45    41    42    1
    46    32    37    1
    47    34    38    1
    48    36    39    1
@<TRIPOS>MOLECULE
*****
 42 48 0 0 0
SMALL
GASTEIGER

@<TRIPOS>ATOM
      1 C          63.6156   91.5450   10.4269 C.3     1  UNL1        0.0048
      2 C          64.2152   91.1316   11.7382 C.3     1  UNL1        0.0321
      3 C          64.6669   92.3979   11.0730 C.3     1  UNL1        0.0528
      4 C          65.7182   93.2508   11.7191 C.3     1  UNL1        0.1948
      5 O          66.3178   92.8374   13.0304 O.3     1  UNL1       -0.4447
      6 C          65.8661   91.5711   13.6957 C.2     1  UNL1        0.3370
      7 O          66.4657   91.1577   15.0070 O.2     1  UNL1       -0.2453
      8 C          64.8149   90.7182   13.0496 C.2     1  UNL1        0.0488
      9 C          64.3632   89.4520   13.7149 C.2     1  UNL1       -0.0239
     10 C          63.3119   88.5991   13.0688 C.3     1  UNL1        0.0289
     11 C          62.7123   89.0125   11.7575 C.3     1  UNL1        0.0430
     12 C          62.2606   87.7462   12.4227 C.3     1  UNL1        0.0034
     13 C          63.1640   90.2787   11.0922 C.3     1  UNL1        0.0499
     14 C          62.5644   90.6921    9.7809 C.3     1  UNL1        0.1986
     15 O          62.3489   90.0069   10.1833 O.3     1  UNL1       -0.4480
     16 C          61.9405   88.8619   10.7849 C.2     1  UNL1        0.3440
     17 O          62.3821   88.8748   11.4182 O.2     1  UNL1       -0.2474
     18 C          61.6610   88.1596   11.1114 C.3     1  UNL1        0.2109
     19 C          61.0614   88.5730    9.8001 C.3     1  UNL1        0.1809
     20 O          60.4618   88.9863    8.4887 O.3     1  UNL1       -0.3468
     21 C          61.5131   89.8392    9.1348 C.3     1  UNL1        0.1849
     22 C          66.1699   94.5170   11.0538 C.ar    1  UNL1        0.0580
     23 C          66.7533   94.6297    9.6765 C.ar    1  UNL1        0.0430
     24 C          67.0614   96.0753    9.4205 C.ar    1  UNL1        0.1795
     25 O          66.6684   96.8560   10.6396 O.2     1  UNL1       -0.4475
     26 C          66.1174   95.8929   11.6490 C.ar    1  UNL1        0.1789
     27 O          61.2094   86.8933   11.7767 O.3     1  UNL1       -0.3201
     28 C          62.1445   85.7248   11.8785 C.3     1  UNL1        0.2661
     29 O          62.5479   85.2022   13.2254 O.3     1  UNL1       -0.3260
     30 C          63.4830   84.0337   13.3272 C.3     1  UNL1        0.1761
     31 C          64.0146   83.3879   12.0820 C.3     1  UNL1        0.1694
     32 O          64.9496   82.2194   12.1838 O.3     1  UNL1       -0.3794
     33 C          63.6111   83.9105   10.7351 C.3     1  UNL1        0.1715
     34 O          64.1427   83.2647    9.4900 O.3     1  UNL1       -0.3794
     35 C          62.6760   85.0790   10.6334 C.3     1  UNL1        0.1964
     36 O          62.2725   85.6016    9.2865 O.3     1  UNL1       -0.3775
     37 H          65.1963   81.9242   11.2933 H       1  UNL1        0.2105
     38 H          64.7284   82.5302    9.7316 H       1  UNL1        0.2105
     39 H          61.6693   86.3529    9.3986 H       1  UNL1        0.2106
     40 C          63.8865   83.5111   14.6740 C.3     1  UNL1        0.1693
     41 O          62.8563   82.9139   15.5862 O.3     1  UNL1       -0.3794
     42 H          62.2293   83.6015   15.8600 H       1  UNL1        0.2105
@<TRIPOS>BOND
     1     2     1    1
     2     2     3    1
     3     3     4    1
     4     4    22    1
     5    22    23   ar
     6    23    24   ar
     7    24    25   ar
     8    25    26   ar
     9     4     5    1
    10     5     6    1
    11     6     7    2
    12     6     8    1
    13     8     9    2
    14     9    10    1
    15    10    11    1
    16    11    12    1
    17    11    13    1
    18    13    14    1
    19    14    15    1
    20    15    16    1
    21    16    17    2
    22    16    18    1
    23    18    27    1
    24    28    27    1
    25    28    29    1
    26    29    30    1
    27    30    40    1
    28    40    41    1
    29    30    31    1
    30    31    32    1
    31    31    33    1
    32    33    34    1
    33    33    35    1
    34    35    36    1
    35    18    19    1
    36    19    20    1
    37    21    20    1
    38     8     2    1
    39    18    11    1
    40    35    28    1
    41    21    19    1
    42    13     2    1
    43    21    14    1
    44    26    22   ar
    45    41    42    1
    46    32    37    1
    47    34    38    1
    48    36    39    1
@<TRIPOS>MOLECULE
*****
 42 48 0 0 0
SMALL
GASTEIGER

@<TRIPOS>ATOM
      1 C          62.3611   85.6640   11.0048 C.3     1  UNL1        0.0048
      2 C          63.1122   85.8093   12.2950 C.3     1  UNL1        0.0321
      3 C          62.8774   84.4468   11.7132 C.3     1  UNL1        0.0528
      4 C          63.3938   83.2296   12.4217 C.3     1  UNL1        0.1948
      5 O          64.1448   83.3749   13.7119 O.3     1  UNL1       -0.4447
      6 C          64.3796   84.7374   14.2937 C.2     1  UNL1        0.3370
      7 O          65.1306   84.8828   15.5840 O.2     1  UNL1       -0.2453
      8 C          63.8633   85.9546   13.5853 C.2     1  UNL1        0.0488
      9 C          64.0980   87.3171   14.1671 C.2     1  UNL1       -0.0239
     10 C          63.5817   88.5343   13.4586 C.3     1  UNL1        0.0289
     11 C          62.8306   88.3889   12.1684 C.3     1  UNL1        0.0430
     12 C          63.0654   89.7514   12.7502 C.3     1  UNL1        0.0034
     13 C          62.5959   87.0265   11.5866 C.3     1  UNL1        0.0499
     14 C          61.8448   86.8811   10.2964 C.3     1  UNL1        0.1986
     15 O          61.9980   87.6068   10.6539 O.3     1  UNL1       -0.4480
     16 C          62.2103   88.8388   11.1800 C.2     1  UNL1        0.3440
     17 O          62.6024   88.6498   11.8177 O.2     1  UNL1       -0.2474
     18 C          62.3143   89.6061   11.4600 C.3     1  UNL1        0.2109
     19 C          61.5632   89.4608   10.1697 C.3     1  UNL1        0.1809
     20 O          60.8122   89.3155    8.8794 O.3     1  UNL1       -0.3468
     21 C          61.3285   88.0983    9.5879 C.3     1  UNL1        0.1849
     22 C          63.1590   81.8671   11.8399 C.ar    1  UNL1        0.0580
     23 C          63.2975   81.4897   10.3947 C.ar    1  UNL1        0.0430
     24 C          62.9686   80.0321   10.2628 C.ar    1  UNL1        0.1795
     25 O          62.6269   79.5087   11.6263 O.2     1  UNL1       -0.4475
     26 C          62.7445   80.6428   12.6010 C.ar    1  UNL1        0.1789
     27 O          62.5491   90.9686   12.0418 O.3     1  UNL1       -0.3201
     28 C          63.9431   91.4128   12.3727 C.3     1  UNL1        0.2661
     29 O          64.9263   91.6801   11.2718 O.3     1  UNL1       -0.3260
     30 C          66.3203   92.1243   11.6027 C.3     1  UNL1        0.1761
     31 C          66.7311   92.3012   13.0345 C.3     1  UNL1        0.1694
     32 O          68.1251   92.7454   13.3654 O.3     1  UNL1       -0.3794
     33 C          65.7479   92.0339   14.1353 C.3     1  UNL1        0.1715
     34 O          66.1587   92.2108   15.5671 O.3     1  UNL1       -0.3794
     35 C          64.3539   91.5897   13.8044 C.3     1  UNL1        0.1964
     36 O          63.3707   91.3224   14.9053 O.3     1  UNL1       -0.3775
     37 H          68.2241   92.8093   14.3282 H       1  UNL1        0.2105
     38 H          67.0840   92.4994   15.6047 H       1  UNL1        0.2105
     39 H          62.5235   91.0462   14.5221 H       1  UNL1        0.2106
     40 C          67.3035   92.3916   10.5018 C.3     1  UNL1        0.1693
     41 O          68.7759   92.2994   10.7726 O.3     1  UNL1       -0.3794
     42 H          69.0347   92.9975   11.3943 H       1  UNL1        0.2105
@<TRIPOS>BOND
     1     2     1    1
     2     2     3    1
     3     3     4    1
     4     4    22    1
     5    22    23   ar
     6    23    24   ar
     7    24    25   ar
     8    25    26   ar
     9     4     5    1
    10     5     6    1
    11     6     7    2
    12     6     8    1
    13     8     9    2
    14     9    10    1
    15    10    11    1
    16    11    12    1
    17    11    13    1
    18    13    14    1
    19    14    15    1
    20    15    16    1
    21    16    17    2
    22    16    18    1
    23    18    27    1
    24    28    27    1
    25    28    29    1
    26    29    30    1
    27    30    40    1
    28    40    41    1
    29    30    31    1
    30    31    32    1
    31    31    33    1
    32    33    34    1
    33    33    35    1
    34    35    36    1
    35    18    19    1
    36    19    20    1
    37    21    20    1
    38     8     2    1
    39    18    11    1
    40    35    28    1
    41    21    19    1
    42    13     2    1
    43    21    14    1
    44    26    22   ar
    45    41    42    1
    46    32    37    1
    47    34    38    1
    48    36    39    1
@<TRIPOS>MOLECULE
*****
 42 48 0 0 0
SMALL
GASTEIGER

@<TRIPOS>ATOM
      1 C          63.9047   87.9854   13.6840 C.3     1  UNL1        0.0048
      2 C          63.2244   88.0852   12.3509 C.3     1  UNL1        0.0321
      3 C          63.2555   86.7752   13.0809 C.3     1  UNL1        0.0528
      4 C          62.6061   85.5649   12.4778 C.3     1  UNL1        0.1948
      5 O          61.9258   85.6647   11.1447 O.3     1  UNL1       -0.4447
      6 C          61.8948   86.9747   10.4147 C.2     1  UNL1        0.3370
      7 O          61.2145   87.0744    9.0816 O.2     1  UNL1       -0.2453
      8 C          62.5440   88.1849   11.0177 C.2     1  UNL1        0.0488
      9 C          62.5130   89.4949   10.2877 C.2     1  UNL1       -0.0239
     10 C          63.1623   90.7052   10.8908 C.3     1  UNL1        0.0289
     11 C          63.8426   90.6054   12.2239 C.3     1  UNL1        0.0430
     12 C          63.8116   91.9154   11.4939 C.3     1  UNL1        0.0034
     13 C          63.8737   89.2954   12.9539 C.3     1  UNL1        0.0499
     14 C          64.5540   89.1957   14.2870 C.3     1  UNL1        0.1986
     15 O          64.5112   89.8918   13.8495 O.3     1  UNL1       -0.4480
     16 C          64.4831   91.0764   13.1894 C.2     1  UNL1        0.3440
     17 O          64.0914   90.8713   12.5564 O.2     1  UNL1       -0.2474
     18 C          64.4919   91.8157   12.8270 C.3     1  UNL1        0.2109
     19 C          65.1723   91.7160   14.1601 C.3     1  UNL1        0.1809
     20 O          65.8526   91.6162   15.4932 O.3     1  UNL1       -0.3468
     21 C          65.2033   90.4060   14.8902 C.3     1  UNL1        0.1849
     22 C          62.6372   84.2549   13.2078 C.ar    1  UNL1        0.0580
     23 C          62.8019   82.9011   12.5831 C.ar    1  UNL1        0.0430
     24 C          62.7755   81.8782   13.6800 C.ar    1  UNL1        0.1795
     25 O          62.5944   82.5998   14.9825 O.2     1  UNL1       -0.4475
     26 C          62.5089   84.0687   14.6907 C.ar    1  UNL1        0.1789
     27 O          64.4609   93.1257   12.0969 O.3     1  UNL1       -0.3201
     28 C          65.5900   93.5025   11.1841 C.3     1  UNL1        0.2661
     29 O          66.4560   92.4358   10.5824 O.3     1  UNL1       -0.3260
     30 C          67.5851   92.8127    9.6697 C.3     1  UNL1        0.1761
     31 C          67.8482   94.2563    9.3586 C.3     1  UNL1        0.1694
     32 O          68.9773   94.6332    8.4459 O.3     1  UNL1       -0.3794
     33 C          66.9821   95.3230    9.9604 C.3     1  UNL1        0.1715
     34 O          67.2452   96.7667    9.6494 O.3     1  UNL1       -0.3794
     35 C          65.8531   94.9462   10.8731 C.3     1  UNL1        0.1964
     36 O          64.9870   96.0129   11.4749 O.3     1  UNL1       -0.3775
     37 H          69.0084   95.5981    8.3515 H       1  UNL1        0.2105
     38 H          68.0042   96.8350    9.0492 H       1  UNL1        0.2105
     39 H          64.3103   95.6020   12.0354 H       1  UNL1        0.2106
     40 C          68.4511   91.7459    9.0680 C.3     1  UNL1        0.1693
     41 O          69.1715   92.0039    7.7778 O.3     1  UNL1       -0.3794
     42 H          68.5253   92.1110    7.0624 H       1  UNL1        0.2105
@<TRIPOS>BOND
     1     2     1    1
     2     2     3    1
     3     3     4    1
     4     4    22    1
     5    22    23   ar
     6    23    24   ar
     7    24    25   ar
     8    25    26   ar
     9     4     5    1
    10     5     6    1
    11     6     7    2
    12     6     8    1
    13     8     9    2
    14     9    10    1
    15    10    11    1
    16    11    12    1
    17    11    13    1
    18    13    14    1
    19    14    15    1
    20    15    16    1
    21    16    17    2
    22    16    18    1
    23    18    27    1
    24    28    27    1
    25    28    29    1
    26    29    30    1
    27    30    40    1
    28    40    41    1
    29    30    31    1
    30    31    32    1
    31    31    33    1
    32    33    34    1
    33    33    35    1
    34    35    36    1
    35    18    19    1
    36    19    20    1
    37    21    20    1
    38     8     2    1
    39    18    11    1
    40    35    28    1
    41    21    19    1
    42    13     2    1
    43    21    14    1
    44    26    22   ar
    45    41    42    1
    46    32    37    1
    47    34    38    1
    48    36    39    1
@<TRIPOS>MOLECULE
*****
 42 48 0 0 0
SMALL
GASTEIGER

@<TRIPOS>ATOM
      1 C          65.4511   89.9511   14.6071 C.3     1  UNL1        0.0048
      2 C          64.6488   90.1318   13.3526 C.3     1  UNL1        0.0321
      3 C          64.5890   88.8330   14.1006 C.3     1  UNL1        0.0528
      4 C          63.7269   87.7148   13.5941 C.3     1  UNL1        0.1948
      5 O          62.9246   87.8954   12.3397 O.3     1  UNL1       -0.4447
      6 C          62.9844   89.1942   11.5917 C.2     1  UNL1        0.3370
      7 O          62.1821   89.3749   10.3373 O.2     1  UNL1       -0.2453
      8 C          63.8464   90.3124   12.0982 C.2     1  UNL1        0.0488
      9 C          63.9061   91.6112   11.3502 C.2     1  UNL1       -0.0239
     10 C          64.7682   92.7294   11.8567 C.3     1  UNL1        0.0289
     11 C          65.5705   92.5488   13.1111 C.3     1  UNL1        0.0430
     12 C          65.6302   93.8476   12.3631 C.3     1  UNL1        0.0034
     13 C          65.5108   91.2500   13.8591 C.3     1  UNL1        0.0499
     14 C          66.3131   91.0693   15.1135 C.3     1  UNL1        0.1986
     15 O          66.3135   91.7627   14.6696 O.3     1  UNL1       -0.4480
     16 C          66.3675   92.9372   13.9932 C.2     1  UNL1        0.3440
     17 O          65.8862   92.7816   13.4098 O.2     1  UNL1       -0.2474
     18 C          66.4325   93.6670   13.6175 C.3     1  UNL1        0.2109
     19 C          67.2349   93.4864   14.8720 C.3     1  UNL1        0.1809
     20 O          68.0372   93.3057   16.1265 O.3     1  UNL1       -0.3468
     21 C          67.1752   92.1875   15.6200 C.3     1  UNL1        0.1849
     22 C          63.6672   86.4159   14.3421 C.ar    1  UNL1        0.0580
     23 C          63.5417   85.0516   13.7312 C.ar    1  UNL1        0.0430
     24 C          63.5194   84.0459   14.8439 C.ar    1  UNL1        0.1795
     25 O          63.6311   84.7885   16.1424 O.2     1  UNL1       -0.4475
     26 C          63.7224   86.2533   15.8322 C.ar    1  UNL1        0.1789
     27 O          66.4923   94.9658   12.8696 O.3     1  UNL1       -0.3201
     28 C          66.5746   94.9656   11.3718 C.3     1  UNL1        0.2661
     29 O          67.5056   94.0205   10.6719 O.3     1  UNL1       -0.3260
     30 C          67.5879   94.0203    9.1741 C.3     1  UNL1        0.1761
     31 C          66.7392   94.9653    8.3763 C.3     1  UNL1        0.1694
     32 O          66.8215   94.9651    6.8786 O.3     1  UNL1       -0.3794
     33 C          65.8081   95.9105    9.0762 C.3     1  UNL1        0.1715
     34 O          64.9594   96.8555    8.2783 O.3     1  UNL1       -0.3794
     35 C          65.7259   95.9106   10.5739 C.3     1  UNL1        0.1964
     36 O          64.7948   96.8558   11.2738 O.3     1  UNL1       -0.3775
     37 H          66.2127   95.6304    6.5212 H       1  UNL1        0.2105
     38 H          65.1332   96.7264    7.3328 H       1  UNL1        0.2105
     39 H          64.8639   96.7270   12.2327 H       1  UNL1        0.2106
     40 C          68.5190   93.0751    8.4743 C.3     1  UNL1        0.1693
     41 O          68.4073   91.5984    8.7126 O.3     1  UNL1       -0.3794
     42 H          68.6381   91.4012    9.6339 H       1  UNL1        0.2105
@<TRIPOS>BOND
     1     2     1    1
     2     2     3    1
     3     3     4    1
     4     4    22    1
     5    22    23   ar
     6    23    24   ar
     7    24    25   ar
     8    25    26   ar
     9     4     5    1
    10     5     6    1
    11     6     7    2
    12     6     8    1
    13     8     9    2
    14     9    10    1
    15    10    11    1
    16    11    12    1
    17    11    13    1
    18    13    14    1
    19    14    15    1
    20    15    16    1
    21    16    17    2
    22    16    18    1
    23    18    27    1
    24    28    27    1
    25    28    29    1
    26    29    30    1
    27    30    40    1
    28    40    41    1
    29    30    31    1
    30    31    32    1
    31    31    33    1
    32    33    34    1
    33    33    35    1
    34    35    36    1
    35    18    19    1
    36    19    20    1
    37    21    20    1
    38     8     2    1
    39    18    11    1
    40    35    28    1
    41    21    19    1
    42    13     2    1
    43    21    14    1
    44    26    22   ar
    45    41    42    1
    46    32    37    1
    47    34    38    1
    48    36    39    1
@<TRIPOS>MOLECULE
*****
 42 48 0 0 0
SMALL
GASTEIGER

@<TRIPOS>ATOM
      1 C          61.2133   89.5577    9.6853 C.3     1  UNL1        0.0048
      2 C          61.0694   88.1174    9.2919 C.3     1  UNL1        0.0321
      3 C          60.4566   89.1915    8.4430 C.3     1  UNL1        0.0528
      4 C          59.6998   88.8254    7.2006 C.3     1  UNL1        0.1948
      5 O          59.5560   87.3851    6.8072 O.3     1  UNL1       -0.4447
      6 C          60.1688   86.3109    7.6561 C.2     1  UNL1        0.3370
      7 O          60.0250   84.8706    7.2627 O.2     1  UNL1       -0.2453
      8 C          60.9255   86.6770    8.8984 C.2     1  UNL1        0.0488
      9 C          61.5383   85.6028    9.7473 C.2     1  UNL1       -0.0239
     10 C          62.2950   85.9690   10.9896 C.3     1  UNL1        0.0289
     11 C          62.4389   87.4093   11.3830 C.3     1  UNL1        0.0430
     12 C          63.0517   86.3351   12.2319 C.3     1  UNL1        0.0034
     13 C          61.8261   88.4835   10.5342 C.3     1  UNL1        0.0499
     14 C          61.9699   89.9238   10.9276 C.3     1  UNL1        0.1986
     15 O          62.2882   89.3002   11.3609 O.3     1  UNL1       -0.4480
     16 C          62.8424   88.3289   12.1285 C.2     1  UNL1        0.3440
     17 O          62.6349   87.7024   11.7276 O.2     1  UNL1       -0.2474
     18 C          63.1956   87.7754   12.6253 C.3     1  UNL1        0.2109
     19 C          63.3395   89.2158   13.0188 C.3     1  UNL1        0.1809
     20 O          63.4834   90.6560   13.4122 O.3     1  UNL1       -0.3468
     21 C          62.7267   90.2899   12.1699 C.3     1  UNL1        0.1849
     22 C          59.0870   89.8995    6.3518 C.ar    1  UNL1        0.0580
     23 C          59.8337   90.8917    5.5102 C.ar    1  UNL1        0.0430
     24 C          58.8280   91.7755    4.8337 C.ar    1  UNL1        0.1795
     25 O          57.4599   91.3296    5.2572 O.2     1  UNL1       -0.4475
     26 C          57.6200   90.1702    6.1954 C.ar    1  UNL1        0.1789
     27 O          63.8084   86.7012   13.4742 O.3     1  UNL1       -0.3201
     28 C          63.4785   85.2610   13.2152 C.3     1  UNL1        0.2661
     29 O          63.9757   84.5900   11.9693 O.3     1  UNL1       -0.3260
     30 C          63.6457   83.1498   11.7103 C.3     1  UNL1        0.1761
     31 C          62.8185   82.3807   12.6973 C.3     1  UNL1        0.1694
     32 O          62.4886   80.9405   12.4384 O.3     1  UNL1       -0.3794
     33 C          62.3213   83.0518   13.9434 C.3     1  UNL1        0.1715
     34 O          61.4941   82.2827   14.9304 O.3     1  UNL1       -0.3794
     35 C          62.6513   84.4919   14.2023 C.3     1  UNL1        0.1964
     36 O          62.1541   85.1630   15.4483 O.3     1  UNL1       -0.3775
     37 H          61.9512   80.5956   13.1686 H       1  UNL1        0.2105
     38 H          61.3747   81.3737   14.6134 H       1  UNL1        0.2105
     39 H          62.4542   86.0853   15.4606 H       1  UNL1        0.2106
     40 C          64.1429   82.4787   10.4643 C.3     1  UNL1        0.1693
     41 O          63.4579   81.2467    9.9516 O.3     1  UNL1       -0.3794
     42 H          63.5785   80.5223   10.5853 H       1  UNL1        0.2105
@<TRIPOS>BOND
     1     2     1    1
     2     2     3    1
     3     3     4    1
     4     4    22    1
     5    22    23   ar
     6    23    24   ar
     7    24    25   ar
     8    25    26   ar
     9     4     5    1
    10     5     6    1
    11     6     7    2
    12     6     8    1
    13     8     9    2
    14     9    10    1
    15    10    11    1
    16    11    12    1
    17    11    13    1
    18    13    14    1
    19    14    15    1
    20    15    16    1
    21    16    17    2
    22    16    18    1
    23    18    27    1
    24    28    27    1
    25    28    29    1
    26    29    30    1
    27    30    40    1
    28    40    41    1
    29    30    31    1
    30    31    32    1
    31    31    33    1
    32    33    34    1
    33    33    35    1
    34    35    36    1
    35    18    19    1
    36    19    20    1
    37    21    20    1
    38     8     2    1
    39    18    11    1
    40    35    28    1
    41    21    19    1
    42    13     2    1
    43    21    14    1
    44    26    22   ar
    45    41    42    1
    46    32    37    1
    47    34    38    1
    48    36    39    1
