@<TRIPOS>MOLECULE
*****
 26 28 0 0 0
SMALL
GASTEIGER

@<TRIPOS>ATOM
      1 C          64.7492   91.9638   11.2480 C.2     1  UNL1        0.2685
      2 O          63.6105   91.4755   10.4025 O.2     1  UNL1       -0.2682
      3 N          64.7596   91.6898   12.7227 N.am    1  UNL1       -0.2723
      4 C          65.8984   92.1783   13.5683 C.3     1  UNL1        0.0761
      5 C          66.1428   93.6505   13.7192 C.3     1  UNL1        0.0212
      6 C          67.2815   94.1388   14.5646 C.3     1  UNL1        0.0172
      7 C          68.1757   93.1550   15.2592 C.3     1  UNL1        0.0509
      8 N          69.3144   93.6434   16.1047 N.3     1  UNL1       -0.3222
      9 C          67.9313   91.6828   15.1083 C.3     1  UNL1        0.0172
     10 C          66.7926   91.1944   14.2628 C.3     1  UNL1        0.0212
     11 H          69.3320   94.6632   16.0951 H       1  UNL1        0.1188
     12 H          70.1933   93.2847   15.7315 H       1  UNL1        0.1188
     13 C          67.5835   95.8458    9.0621 C.3     1  UNL1        0.1321
     14 N          67.1802   94.5107    9.6140 N.ar    1  UNL1       -0.3057
     15 C          68.0468   93.2885    9.6871 C.ar    1  UNL1        0.1787
     16 N          67.2417   92.1857   10.3081 N.ar    1  UNL1       -0.2192
     17 C          65.8774   92.7263   10.6188 C.ar    1  UNL1        0.1535
     18 C          65.8393   94.1632   10.1899 C.ar    1  UNL1        0.1012
     19 C          63.6315   90.9275   13.3520 C.3     1  UNL1        0.1204
     20 C          63.6881   89.4304   13.4275 C.ar    1  UNL1       -0.0015
     21 C          64.3542   88.7630   14.5940 C.ar    1  UNL1       -0.0026
     22 C          64.4108   87.2660   14.6696 C.ar    1  UNL1        0.0006
     23 C          63.8013   86.4364   13.5786 C.ar    1  UNL1        0.0114
     24 C          63.1352   87.1038   12.4121 C.ar    1  UNL1        0.0574
     25 CL         62.5256   86.2742   11.3211 Cl      1  UNL1       -0.0823
     26 C          63.0786   88.6008   12.3365 C.ar    1  UNL1        0.0088
@<TRIPOS>BOND
     1    13    14    1
     2    14    15   ar
     3    15    16   ar
     4    16    17   ar
     5    17     1    1
     6     1     2    2
     7     1     3   am
     8     3    19    1
     9    19    20    1
    10    20    21   ar
    11    21    22   ar
    12    22    23   ar
    13    23    24   ar
    14    24    25    1
    15    24    26   ar
    16     4     3    1
    17     4     5    1
    18     5     6    1
    19     6     7    1
    20     7     8    1
    21     7     9    1
    22     9    10    1
    23    17    18   ar
    24    18    14   ar
    25    26    20   ar
    26    10     4    1
    27     8    11    1
    28     8    12    1
@<TRIPOS>MOLECULE
*****
 26 28 0 0 0
SMALL
GASTEIGER

@<TRIPOS>ATOM
      1 C          65.2036   92.0706   12.6533 C.2     1  UNL1        0.2685
      2 O          65.4598   92.9540   11.4684 O.2     1  UNL1       -0.2682
      3 N          64.1665   90.9898   12.5727 N.am    1  UNL1       -0.2723
      4 C          63.9104   90.1064   13.7576 C.3     1  UNL1        0.0761
      5 C          64.3580   88.6749   13.7366 C.3     1  UNL1        0.0212
      6 C          64.1019   87.7915   14.9214 C.3     1  UNL1        0.0172
      7 C          63.3980   88.3396   16.1274 C.3     1  UNL1        0.0509
      8 N          63.1419   87.4562   17.3123 N.3     1  UNL1       -0.3222
      9 C          62.9504   89.7711   16.1484 C.3     1  UNL1        0.0172
     10 C          63.2066   90.6544   14.9635 C.3     1  UNL1        0.0212
     11 H          63.5100   86.5232   17.1267 H       1  UNL1        0.1188
     12 H          62.1378   87.3979   17.4822 H       1  UNL1        0.1188
     13 C          69.1908   92.3282   16.1054 C.3     1  UNL1        0.1321
     14 N          67.8172   92.3863   15.5055 N.ar    1  UNL1       -0.3057
     15 C          66.5551   92.7567   16.2266 C.ar    1  UNL1        0.1787
     16 N          65.4224   92.6835   15.2459 N.ar    1  UNL1       -0.2192
     17 C          65.9845   92.2679   13.9187 C.ar    1  UNL1        0.1535
     18 C          67.4645   92.0842   14.0791 C.ar    1  UNL1        0.1012
     19 C          63.3857   90.7925   11.3073 C.3     1  UNL1        0.1204
     20 C          62.1908   89.8857   11.2970 C.ar    1  UNL1       -0.0015
     21 C          60.8466   90.4117   11.7050 C.ar    1  UNL1       -0.0026
     22 C          59.6518   89.5049   11.6947 C.ar    1  UNL1        0.0006
     23 C          59.8012   88.0722   11.2763 C.ar    1  UNL1        0.0114
     24 C          61.1453   87.5462   10.8683 C.ar    1  UNL1        0.0574
     25 CL         61.2947   86.1135   10.4500 Cl      1  UNL1       -0.0823
     26 C          62.3401   88.4530   10.8787 C.ar    1  UNL1        0.0088
@<TRIPOS>BOND
     1    13    14    1
     2    14    15   ar
     3    15    16   ar
     4    16    17   ar
     5    17     1    1
     6     1     2    2
     7     1     3   am
     8     3    19    1
     9    19    20    1
    10    20    21   ar
    11    21    22   ar
    12    22    23   ar
    13    23    24   ar
    14    24    25    1
    15    24    26   ar
    16     4     3    1
    17     4     5    1
    18     5     6    1
    19     6     7    1
    20     7     8    1
    21     7     9    1
    22     9    10    1
    23    17    18   ar
    24    18    14   ar
    25    26    20   ar
    26    10     4    1
    27     8    11    1
    28     8    12    1
@<TRIPOS>MOLECULE
*****
 26 28 0 0 0
SMALL
GASTEIGER

@<TRIPOS>ATOM
      1 C          63.8314   91.3981   11.4866 C.2     1  UNL1        0.2685
      2 O          64.2202   92.3468   10.3917 O.2     1  UNL1       -0.2682
      3 N          64.5918   91.3930   12.7797 N.am    1  UNL1       -0.2723
      4 C          64.2029   90.4443   13.8746 C.3     1  UNL1        0.0761
      5 C          64.3221   88.9643   13.6621 C.3     1  UNL1        0.0212
      6 C          63.9333   88.0157   14.7570 C.3     1  UNL1        0.0172
      7 C          63.4253   88.5471   16.0645 C.3     1  UNL1        0.0509
      8 N          63.0365   87.5984   17.1595 N.3     1  UNL1       -0.3222
      9 C          63.3062   90.0272   16.2771 C.3     1  UNL1        0.0172
     10 C          63.6950   90.9758   15.1821 C.3     1  UNL1        0.0212
     11 H          63.1805   86.6389   16.8450 H       1  UNL1        0.1188
     12 H          62.0535   87.7353   17.3947 H       1  UNL1        0.1188
     13 C          60.8586   87.4047    9.7272 C.3     1  UNL1        0.1321
     14 N          61.3158   88.6189   10.4798 N.ar    1  UNL1       -0.3057
     15 C          60.5122   89.3860   11.4878 C.ar    1  UNL1        0.1787
     16 N          61.3568   90.5205   11.9876 N.ar    1  UNL1       -0.2192
     17 C          62.6823   90.4545   11.2886 C.ar    1  UNL1        0.1535
     18 C          62.6571   89.2793   10.3568 C.ar    1  UNL1        0.1012
     19 C          65.7408   92.3366   12.9777 C.3     1  UNL1        0.1204
     20 C          66.3639   93.0183   11.7957 C.ar    1  UNL1       -0.0015
     21 C          66.1077   94.4755   11.5493 C.ar    1  UNL1       -0.0026
     22 C          66.7308   95.1571   10.3673 C.ar    1  UNL1        0.0006
     23 C          67.6100   94.3815    9.4317 C.ar    1  UNL1        0.0114
     24 C          67.8662   92.9243    9.6781 C.ar    1  UNL1        0.0574
     25 CL         68.7455   92.1486    8.7425 Cl      1  UNL1       -0.0823
     26 C          67.2432   92.2427   10.8601 C.ar    1  UNL1        0.0088
@<TRIPOS>BOND
     1    13    14    1
     2    14    15   ar
     3    15    16   ar
     4    16    17   ar
     5    17     1    1
     6     1     2    2
     7     1     3   am
     8     3    19    1
     9    19    20    1
    10    20    21   ar
    11    21    22   ar
    12    22    23   ar
    13    23    24   ar
    14    24    25    1
    15    24    26   ar
    16     4     3    1
    17     4     5    1
    18     5     6    1
    19     6     7    1
    20     7     8    1
    21     7     9    1
    22     9    10    1
    23    17    18   ar
    24    18    14   ar
    25    26    20   ar
    26    10     4    1
    27     8    11    1
    28     8    12    1
@<TRIPOS>MOLECULE
*****
 26 28 0 0 0
SMALL
GASTEIGER

@<TRIPOS>ATOM
      1 C          63.5465   90.7868   13.3307 C.2     1  UNL1        0.2685
      2 O          63.7804   92.1305   12.7066 O.2     1  UNL1       -0.2682
      3 N          63.9937   90.5256   14.7385 N.am    1  UNL1       -0.2723
      4 C          63.7597   89.1817   15.3626 C.3     1  UNL1        0.0761
      5 C          64.3868   87.9575   14.7644 C.3     1  UNL1        0.0212
      6 C          64.1527   86.6138   15.3885 C.3     1  UNL1        0.0172
      7 C          63.2916   86.4943   16.6109 C.3     1  UNL1        0.0509
      8 N          63.0576   85.1505   17.2350 N.3     1  UNL1       -0.3222
      9 C          62.6645   87.7185   17.2091 C.3     1  UNL1        0.0172
     10 C          62.8985   89.0622   16.5850 C.3     1  UNL1        0.0212
     11 H          63.5554   84.4370   16.7026 H       1  UNL1        0.1188
     12 H          62.0589   84.9429   17.2308 H       1  UNL1        0.1188
     13 C          59.9751   88.1358   10.4850 C.3     1  UNL1        0.1321
     14 N          61.2236   88.4857   11.2391 N.ar    1  UNL1       -0.3057
     15 C          62.4102   87.5910   11.4435 C.ar    1  UNL1        0.1787
     16 N          63.4247   88.3441   12.2519 N.ar    1  UNL1       -0.2192
     17 C          62.8652   89.7042   12.5471 C.ar    1  UNL1        0.1535
     18 C          61.5049   89.7918   11.9212 C.ar    1  UNL1        0.1012
     19 C          64.6749   91.6081   15.5221 C.3     1  UNL1        0.1204
     20 C          66.1156   91.9318   15.2582 C.ar    1  UNL1       -0.0015
     21 C          66.9295   92.6366   16.3025 C.ar    1  UNL1       -0.0026
     22 C          68.3701   92.9603   16.0386 C.ar    1  UNL1        0.0006
     23 C          68.9969   92.5792   14.7302 C.ar    1  UNL1        0.0114
     24 C          68.1831   91.8743   13.6858 C.ar    1  UNL1        0.0574
     25 CL         68.8099   91.4931   12.3774 Cl      1  UNL1       -0.0823
     26 C          66.7424   91.5506   13.9498 C.ar    1  UNL1        0.0088
@<TRIPOS>BOND
     1    13    14    1
     2    14    15   ar
     3    15    16   ar
     4    16    17   ar
     5    17     1    1
     6     1     2    2
     7     1     3   am
     8     3    19    1
     9    19    20    1
    10    20    21   ar
    11    21    22   ar
    12    22    23   ar
    13    23    24   ar
    14    24    25    1
    15    24    26   ar
    16     4     3    1
    17     4     5    1
    18     5     6    1
    19     6     7    1
    20     7     8    1
    21     7     9    1
    22     9    10    1
    23    17    18   ar
    24    18    14   ar
    25    26    20   ar
    26    10     4    1
    27     8    11    1
    28     8    12    1
@<TRIPOS>MOLECULE
*****
 26 28 0 0 0
SMALL
GASTEIGER

@<TRIPOS>ATOM
      1 C          62.6167   85.6704   12.0120 C.2     1  UNL1        0.2685
      2 O          62.7645   86.1779   13.4157 O.2     1  UNL1       -0.2682
      3 N          61.9392   86.5173   10.9757 N.am    1  UNL1       -0.2723
      4 C          61.7915   86.0097    9.5719 C.3     1  UNL1        0.0761
      5 C          62.9616   85.3821    8.8743 C.3     1  UNL1        0.0212
      6 C          62.8138   84.8746    7.4705 C.3     1  UNL1        0.0172
      7 C          61.4959   84.9948    6.7644 C.3     1  UNL1        0.0509
      8 N          61.3481   84.4872    5.3606 N.3     1  UNL1       -0.3222
      9 C          60.3257   85.6224    7.4620 C.3     1  UNL1        0.0172
     10 C          60.4735   86.1299    8.8658 C.3     1  UNL1        0.0212
     11 H          62.2356   84.0954    5.0455 H       1  UNL1        0.1188
     12 H          61.0794   85.2567    4.7473 H       1  UNL1        0.1188
     13 C          63.0098   80.4508   11.3174 C.3     1  UNL1        0.1321
     14 N          63.3271   81.9168   11.3251 N.ar    1  UNL1       -0.3057
     15 C          64.5961   82.5469   10.8324 C.ar    1  UNL1        0.1787
     16 N          64.4845   84.0297   11.0297 N.ar    1  UNL1       -0.2192
     17 C          63.1465   84.3160   11.6444 C.ar    1  UNL1        0.1535
     18 C          62.4312   83.0103   11.8270 C.ar    1  UNL1        0.1012
     19 C          61.4095   87.8716   11.3432 C.3     1  UNL1        0.1204
     20 C          62.3265   89.0587   11.3519 C.ar    1  UNL1       -0.0015
     21 C          62.4181   89.9444   10.1448 C.ar    1  UNL1       -0.0026
     22 C          63.3351   91.1314   10.1535 C.ar    1  UNL1        0.0006
     23 C          64.1605   91.4326   11.3692 C.ar    1  UNL1        0.0114
     24 C          64.0689   90.5469   12.5763 C.ar    1  UNL1        0.0574
     25 CL         64.8943   90.8481   13.7920 Cl      1  UNL1       -0.0823
     26 C          63.1519   89.3599   12.5676 C.ar    1  UNL1        0.0088
@<TRIPOS>BOND
     1    13    14    1
     2    14    15   ar
     3    15    16   ar
     4    16    17   ar
     5    17     1    1
     6     1     2    2
     7     1     3   am
     8     3    19    1
     9    19    20    1
    10    20    21   ar
    11    21    22   ar
    12    22    23   ar
    13    23    24   ar
    14    24    25    1
    15    24    26   ar
    16     4     3    1
    17     4     5    1
    18     5     6    1
    19     6     7    1
    20     7     8    1
    21     7     9    1
    22     9    10    1
    23    17    18   ar
    24    18    14   ar
    25    26    20   ar
    26    10     4    1
    27     8    11    1
    28     8    12    1
@<TRIPOS>MOLECULE
*****
 26 28 0 0 0
SMALL
GASTEIGER

@<TRIPOS>ATOM
      1 C          63.0733   90.7706   11.2152 C.2     1  UNL1        0.2685
      2 O          63.1842   91.7162   10.0562 O.2     1  UNL1       -0.2682
      3 N          63.8406   91.0366   12.4764 N.am    1  UNL1       -0.2723
      4 C          63.7296   90.0909   13.6354 C.3     1  UNL1        0.0761
      5 C          63.2484   90.5886   14.9661 C.3     1  UNL1        0.0212
      6 C          63.1374   89.6429   16.1251 C.3     1  UNL1        0.0172
      7 C          63.5076   88.1995   15.9534 C.3     1  UNL1        0.0509
      8 N          63.3966   87.2538   17.1125 N.3     1  UNL1       -0.3222
      9 C          63.9887   87.7018   14.6228 C.3     1  UNL1        0.0172
     10 C          64.0997   88.6475   13.4638 C.3     1  UNL1        0.0212
     11 H          63.0563   87.7580   17.9313 H       1  UNL1        0.1188
     12 H          64.3134   86.8554   17.3153 H       1  UNL1        0.1188
     13 C          61.1376   86.0799    9.7552 C.3     1  UNL1        0.1321
     14 N          61.3052   87.4028   10.4421 N.ar    1  UNL1       -0.3057
     15 C          60.3815   87.9858   11.4702 C.ar    1  UNL1        0.1787
     16 N          60.9314   89.3183   11.8849 N.ar    1  UNL1       -0.2192
     17 C          62.1949   89.5589   11.1132 C.ar    1  UNL1        0.1535
     18 C          62.4260   88.3751   10.2214 C.ar    1  UNL1        0.1012
     19 C          64.7189   92.2482   12.5785 C.3     1  UNL1        0.1204
     20 C          66.1286   92.1132   13.0730 C.ar    1  UNL1       -0.0015
     21 C          67.2428   91.8571   12.1019 C.ar    1  UNL1       -0.0026
     22 C          68.6524   91.7220   12.5964 C.ar    1  UNL1        0.0006
     23 C          68.9480   91.8430   14.0620 C.ar    1  UNL1        0.0114
     24 C          67.8338   92.0992   15.0331 C.ar    1  UNL1        0.0574
     25 CL         68.1293   92.2202   16.4987 Cl      1  UNL1       -0.0823
     26 C          66.4242   92.2342   14.5386 C.ar    1  UNL1        0.0088
@<TRIPOS>BOND
     1    13    14    1
     2    14    15   ar
     3    15    16   ar
     4    16    17   ar
     5    17     1    1
     6     1     2    2
     7     1     3   am
     8     3    19    1
     9    19    20    1
    10    20    21   ar
    11    21    22   ar
    12    22    23   ar
    13    23    24   ar
    14    24    25    1
    15    24    26   ar
    16     4     3    1
    17     4     5    1
    18     5     6    1
    19     6     7    1
    20     7     8    1
    21     7     9    1
    22     9    10    1
    23    17    18   ar
    24    18    14   ar
    25    26    20   ar
    26    10     4    1
    27     8    11    1
    28     8    12    1
@<TRIPOS>MOLECULE
*****
 26 28 0 0 0
SMALL
GASTEIGER

@<TRIPOS>ATOM
      1 C          63.2724   87.5552   12.6885 C.2     1  UNL1        0.2685
      2 O          63.2014   86.2509   11.9512 O.2     1  UNL1       -0.2682
      3 N          64.0472   87.6516   13.9693 N.am    1  UNL1       -0.2723
      4 C          64.1182   88.9560   14.7065 C.3     1  UNL1        0.0761
      5 C          63.2792   89.1722   15.9310 C.3     1  UNL1        0.0212
      6 C          63.3503   90.4766   16.6682 C.3     1  UNL1        0.0172
      7 C          64.2603   91.5648   16.1809 C.3     1  UNL1        0.0509
      8 N          64.3314   92.8693   16.9181 N.3     1  UNL1       -0.3222
      9 C          65.0993   91.3487   14.9564 C.3     1  UNL1        0.0172
     10 C          65.0282   90.0443   14.2192 C.3     1  UNL1        0.0212
     11 H          63.7001   92.8421   17.7188 H       1  UNL1        0.1188
     12 H          64.0566   93.6279   16.2941 H       1  UNL1        0.1188
     13 C          59.4788   90.9475   11.2805 C.3     1  UNL1        0.1321
     14 N          60.8250   90.3225   11.4977 N.ar    1  UNL1       -0.3057
     15 C          62.1469   90.9221   11.1191 C.ar    1  UNL1        0.1787
     16 N          63.2245   89.9584   11.5190 N.ar    1  UNL1       -0.2192
     17 C          62.5688   88.7633   12.1449 C.ar    1  UNL1        0.1535
     18 C          61.0858   88.9883   12.1317 C.ar    1  UNL1        0.1012
     19 C          64.7508   86.4436   14.5129 C.3     1  UNL1        0.1204
     20 C          64.0534   85.1157   14.5343 C.ar    1  UNL1       -0.0015
     21 C          62.8800   84.8994   15.4432 C.ar    1  UNL1       -0.0026
     22 C          62.1826   83.5715   15.4645 C.ar    1  UNL1        0.0006
     23 C          62.6588   82.4600   14.5770 C.ar    1  UNL1        0.0114
     24 C          63.8322   82.6763   13.6681 C.ar    1  UNL1        0.0574
     25 CL         64.3084   81.5647   12.7805 Cl      1  UNL1       -0.0823
     26 C          64.5296   84.0041   13.6467 C.ar    1  UNL1        0.0088
@<TRIPOS>BOND
     1    13    14    1
     2    14    15   ar
     3    15    16   ar
     4    16    17   ar
     5    17     1    1
     6     1     2    2
     7     1     3   am
     8     3    19    1
     9    19    20    1
    10    20    21   ar
    11    21    22   ar
    12    22    23   ar
    13    23    24   ar
    14    24    25    1
    15    24    26   ar
    16     4     3    1
    17     4     5    1
    18     5     6    1
    19     6     7    1
    20     7     8    1
    21     7     9    1
    22     9    10    1
    23    17    18   ar
    24    18    14   ar
    25    26    20   ar
    26    10     4    1
    27     8    11    1
    28     8    12    1
@<TRIPOS>MOLECULE
*****
 26 28 0 0 0
SMALL
GASTEIGER

@<TRIPOS>ATOM
      1 C          63.0254   85.3223   11.0375 C.2     1  UNL1        0.2685
      2 O          63.2298   84.8172    9.6399 O.2     1  UNL1       -0.2682
      3 N          63.6246   84.5833   12.1972 N.am    1  UNL1       -0.2723
      4 C          63.4202   85.0884   13.5947 C.3     1  UNL1        0.0761
      5 C          62.3795   84.4612   14.4742 C.3     1  UNL1        0.0212
      6 C          62.1752   84.9664   15.8717 C.3     1  UNL1        0.0172
      7 C          63.0115   86.0987   16.3897 C.3     1  UNL1        0.0509
      8 N          62.8072   86.6039   17.7873 N.3     1  UNL1       -0.3222
      9 C          64.0522   86.7259   15.5102 C.3     1  UNL1        0.0172
     10 C          64.2565   86.2208   14.1127 C.3     1  UNL1        0.0212
     11 H          62.0661   86.0671   18.2379 H       1  UNL1        0.1188
     12 H          62.5437   87.5888   17.7577 H       1  UNL1        0.1188
     13 C          61.7071   90.3711   11.8451 C.3     1  UNL1        0.1321
     14 N          61.6160   88.8872   11.6465 N.ar    1  UNL1       -0.3057
     15 C          60.3550   88.0747   11.6362 C.ar    1  UNL1        0.1787
     16 N          60.7295   86.6405   11.4068 N.ar    1  UNL1       -0.2192
     17 C          62.2219   86.5664   11.2753 C.ar    1  UNL1        0.1535
     18 C          62.7698   87.9549   11.4235 C.ar    1  UNL1        0.1012
     19 C          64.4281   83.3392   11.9593 C.3     1  UNL1        0.1204
     20 C          63.7579   81.9974   11.9837 C.ar    1  UNL1       -0.0015
     21 C          63.3137   81.4045   13.2880 C.ar    1  UNL1       -0.0026
     22 C          62.6435   80.0628   13.3124 C.ar    1  UNL1        0.0006
     23 C          62.4176   79.3139   12.0325 C.ar    1  UNL1        0.0114
     24 C          62.8618   79.9068   10.7282 C.ar    1  UNL1        0.0574
     25 CL         62.6359   79.1579    9.4483 Cl      1  UNL1       -0.0823
     26 C          63.5320   81.2485   10.7038 C.ar    1  UNL1        0.0088
@<TRIPOS>BOND
     1    13    14    1
     2    14    15   ar
     3    15    16   ar
     4    16    17   ar
     5    17     1    1
     6     1     2    2
     7     1     3   am
     8     3    19    1
     9    19    20    1
    10    20    21   ar
    11    21    22   ar
    12    22    23   ar
    13    23    24   ar
    14    24    25    1
    15    24    26   ar
    16     4     3    1
    17     4     5    1
    18     5     6    1
    19     6     7    1
    20     7     8    1
    21     7     9    1
    22     9    10    1
    23    17    18   ar
    24    18    14   ar
    25    26    20   ar
    26    10     4    1
    27     8    11    1
    28     8    12    1
@<TRIPOS>MOLECULE
*****
 26 28 0 0 0
SMALL
GASTEIGER

@<TRIPOS>ATOM
      1 C          63.6819   88.0757   13.7163 C.2     1  UNL1        0.2685
      2 O          64.5588   87.9709   14.9287 O.2     1  UNL1       -0.2682
      3 N          63.1929   89.4176   13.2580 N.am    1  UNL1       -0.2723
      4 C          62.3159   89.5223   12.0455 C.3     1  UNL1        0.0761
      5 C          60.8239   89.5397   12.1983 C.3     1  UNL1        0.0212
      6 C          59.9470   89.6444   10.9859 C.3     1  UNL1        0.0172
      7 C          60.5622   89.7317    9.6206 C.3     1  UNL1        0.0509
      8 N          59.6852   89.8364    8.4081 N.3     1  UNL1       -0.3222
      9 C          62.0543   89.7144    9.4678 C.3     1  UNL1        0.0172
     10 C          62.9311   89.6097   10.6803 C.3     1  UNL1        0.0212
     11 H          58.7065   89.8343    8.6952 H       1  UNL1        0.1188
     12 H          59.8606   89.0426    7.7921 H       1  UNL1        0.1188
     13 C          63.0933   83.0130   12.3362 C.3     1  UNL1        0.1321
     14 N          63.0234   84.5113   12.3278 N.ar    1  UNL1       -0.3057
     15 C          62.3706   85.3576   11.2753 C.ar    1  UNL1        0.1787
     16 N          62.5378   86.7958   11.6673 N.ar    1  UNL1       -0.2192
     17 C          63.2939   86.8384   12.9621 C.ar    1  UNL1        0.1535
     18 C          63.5941   85.4266   13.3703 C.ar    1  UNL1        0.1012
     19 C          63.5808   90.6548   14.0122 C.3     1  UNL1        0.1204
     20 C          64.9042   91.3100   13.7484 C.ar    1  UNL1       -0.0015
     21 C          65.1796   91.9330   12.4121 C.ar    1  UNL1       -0.0026
     22 C          66.5029   92.5881   12.1484 C.ar    1  UNL1        0.0006
     23 C          67.5509   92.6202   13.2211 C.ar    1  UNL1        0.0114
     24 C          67.2755   91.9971   14.5575 C.ar    1  UNL1        0.0574
     25 CL         68.3235   92.0292   15.6302 Cl      1  UNL1       -0.0823
     26 C          65.9522   91.3420   14.8212 C.ar    1  UNL1        0.0088
@<TRIPOS>BOND
     1    13    14    1
     2    14    15   ar
     3    15    16   ar
     4    16    17   ar
     5    17     1    1
     6     1     2    2
     7     1     3   am
     8     3    19    1
     9    19    20    1
    10    20    21   ar
    11    21    22   ar
    12    22    23   ar
    13    23    24   ar
    14    24    25    1
    15    24    26   ar
    16     4     3    1
    17     4     5    1
    18     5     6    1
    19     6     7    1
    20     7     8    1
    21     7     9    1
    22     9    10    1
    23    17    18   ar
    24    18    14   ar
    25    26    20   ar
    26    10     4    1
    27     8    11    1
    28     8    12    1
