@<TRIPOS>MOLECULE
*****
 28 31 0 0 0
SMALL
GASTEIGER

@<TRIPOS>ATOM
      1 C          61.9027   86.5252   10.8606 C.3     1  UNL1        0.1620
      2 C          62.5375   85.6617   11.9101 C.ar    1  UNL1        0.0089
      3 C          62.3834   84.1709   11.8487 C.ar    1  UNL1       -0.0007
      4 C          63.0181   83.3074   12.8982 C.ar    1  UNL1        0.0112
      5 C          63.8070   83.9347   14.0091 C.ar    1  UNL1        0.0577
      6 CL         64.4418   83.0713   15.0586 Cl      1  UNL1       -0.0822
      7 C          63.9611   85.4255   14.0705 C.ar    1  UNL1        0.0112
      8 C          63.3263   86.2890   13.0209 C.ar    1  UNL1       -0.0007
      9 C          61.7988   86.0337    9.4471 C.ar    1  UNL1        0.0372
     10 C          62.9527   85.3112    8.8175 C.ar    1  UNL1        0.0023
     11 C          62.8487   84.8198    7.4042 C.ar    1  UNL1        0.0205
     12 C          61.5908   85.0509    6.6204 C.ar    1  UNL1        0.0998
     13 N          60.4369   85.7734    7.2500 N.ar    1  UNL1       -0.2327
     14 C          60.5409   86.2648    8.6634 C.ar    1  UNL1        0.1369
     15 CL         59.3869   86.9874    9.2930 Cl      1  UNL1       -0.0616
     16 O          61.3719   87.8801   11.2244 O.3     1  UNL1       -0.3463
     17 O          64.8137   92.7270   10.3179 O.2     1  UNL1       -0.2523
     18 C          64.5553   91.8803   11.5288 C.2     1  UNL1        0.3073
     19 N          65.2294   92.2052   12.8289 N.am    1  UNL1       -0.2640
     20 C          66.1617   93.3768   12.9180 C.3     1  UNL1        0.0949
     21 C          66.8357   93.7017   14.2180 C.3     1  UNL1        0.0216
     22 C          66.5773   92.8550   15.4289 C.3     1  UNL1        0.0035
     23 C          65.6450   91.6834   15.3398 C.3     1  UNL1        0.0216
     24 C          64.9710   91.3585   14.0398 C.3     1  UNL1        0.0949
     25 N          63.6229   90.7087   11.4396 N.am    1  UNL1       -0.2589
     26 C          63.1333   89.6672   12.4017 C.3     1  UNL1        0.1263
     27 C          62.3043   89.0517   11.3136 C.3     1  UNL1        0.1555
     28 C          62.7939   90.0932   10.3515 C.3     1  UNL1        0.1263
@<TRIPOS>BOND
     1    17    18    2
     2    18    19   am
     3    19    20    1
     4    20    21    1
     5    21    22    1
     6    22    23    1
     7    23    24    1
     8    18    25   am
     9    25    26    1
    10    26    27    1
    11    27    16    1
    12     1    16    1
    13     1     2    1
    14     2     3   ar
    15     3     4   ar
    16     4     5   ar
    17     5     6    1
    18     5     7   ar
    19     7     8   ar
    20     1     9    1
    21     9    10   ar
    22    10    11   ar
    23    11    12   ar
    24    12    13   ar
    25    13    14   ar
    26    14    15    1
    27    27    28    1
    28    24    19    1
    29    28    25    1
    30     8     2   ar
    31    14     9   ar
@<TRIPOS>MOLECULE
*****
 28 31 0 0 0
SMALL
GASTEIGER

@<TRIPOS>ATOM
      1 C          65.9602   92.9195   12.2360 C.3     1  UNL1        0.1620
      2 C          66.7631   92.6618   13.4766 C.ar    1  UNL1        0.0089
      3 C          68.1394   92.0748   13.3707 C.ar    1  UNL1       -0.0007
      4 C          68.9423   91.8171   14.6113 C.ar    1  UNL1        0.0112
      5 C          68.3688   92.1464   15.9577 C.ar    1  UNL1        0.0577
      6 CL         69.1717   91.8887   17.1982 Cl      1  UNL1       -0.0822
      7 C          66.9925   92.7333   16.0635 C.ar    1  UNL1        0.0112
      8 C          66.1896   92.9910   14.8229 C.ar    1  UNL1       -0.0007
      9 C          66.6483   93.3399   10.9711 C.ar    1  UNL1        0.0372
     10 C          67.3884   92.3277   10.1479 C.ar    1  UNL1        0.0023
     11 C          68.0764   92.7482    8.8831 C.ar    1  UNL1        0.0205
     12 C          68.0243   94.1808    8.4415 C.ar    1  UNL1        0.0998
     13 N          67.2842   95.1929    9.2647 N.ar    1  UNL1       -0.2327
     14 C          66.5961   94.7724   10.5295 C.ar    1  UNL1        0.1369
     15 CL         65.8559   95.7846   11.3528 Cl      1  UNL1       -0.0616
     16 O          64.4692   92.7568   12.2603 O.3     1  UNL1       -0.3463
     17 O          62.7387   86.9995   12.1188 O.2     1  UNL1       -0.2523
     18 C          62.3758   88.1873   11.2777 C.2     1  UNL1        0.3073
     19 N          61.3997   88.0366   10.1486 N.am    1  UNL1       -0.2640
     20 C          60.7866   86.6983    9.8608 C.3     1  UNL1        0.0949
     21 C          59.8105   86.5477    8.7319 C.3     1  UNL1        0.0216
     22 C          59.4476   87.7355    7.8907 C.3     1  UNL1        0.0035
     23 C          60.0608   89.0738    8.1785 C.3     1  UNL1        0.0216
     24 C          61.0368   89.2244    9.3075 C.3     1  UNL1        0.0949
     25 N          62.9889   89.5256   11.5655 N.am    1  UNL1       -0.2589
     26 C          62.8758   90.8954   10.9646 C.3     1  UNL1        0.1263
     27 C          63.8560   91.4184   11.9725 C.3     1  UNL1        0.1555
     28 C          63.9691   90.0486   12.5733 C.3     1  UNL1        0.1263
@<TRIPOS>BOND
     1    17    18    2
     2    18    19   am
     3    19    20    1
     4    20    21    1
     5    21    22    1
     6    22    23    1
     7    23    24    1
     8    18    25   am
     9    25    26    1
    10    26    27    1
    11    27    16    1
    12     1    16    1
    13     1     2    1
    14     2     3   ar
    15     3     4   ar
    16     4     5   ar
    17     5     6    1
    18     5     7   ar
    19     7     8   ar
    20     1     9    1
    21     9    10   ar
    22    10    11   ar
    23    11    12   ar
    24    12    13   ar
    25    13    14   ar
    26    14    15    1
    27    27    28    1
    28    24    19    1
    29    28    25    1
    30     8     2   ar
    31    14     9   ar
@<TRIPOS>MOLECULE
*****
 28 31 0 0 0
SMALL
GASTEIGER

@<TRIPOS>ATOM
      1 C          64.0252   90.5517   13.7844 C.3     1  UNL1        0.1620
      2 C          63.8328   89.3479   14.6582 C.ar    1  UNL1        0.0089
      3 C          63.1821   89.4927   16.0019 C.ar    1  UNL1       -0.0007
      4 C          62.9897   88.2888   16.8757 C.ar    1  UNL1        0.0112
      5 C          63.4481   86.9400   16.4058 C.ar    1  UNL1        0.0577
      6 CL         63.2557   85.7361   17.2796 Cl      1  UNL1       -0.0822
      7 C          64.0988   86.7952   15.0621 C.ar    1  UNL1        0.0112
      8 C          64.2912   87.9992   14.1883 C.ar    1  UNL1       -0.0007
      9 C          65.3734   91.2026   13.6905 C.ar    1  UNL1        0.0372
     10 C          66.3248   91.1275   14.8477 C.ar    1  UNL1        0.0023
     11 C          67.6729   91.7783   14.7537 C.ar    1  UNL1        0.0205
     12 C          68.0697   92.5044   13.5026 C.ar    1  UNL1        0.0998
     13 N          67.1183   92.5796   12.3453 N.ar    1  UNL1       -0.2327
     14 C          65.7702   91.9287   12.4393 C.ar    1  UNL1        0.1369
     15 CL         64.8187   92.0039   11.2820 Cl      1  UNL1       -0.0616
     16 O          62.8694   91.1048   13.0044 O.3     1  UNL1       -0.3463
     17 O          59.0527   88.4545    9.1876 O.2     1  UNL1       -0.2523
     18 C          60.4848   88.1818    9.5406 C.2     1  UNL1        0.3073
     19 N          61.2186   87.0530    8.8791 N.am    1  UNL1       -0.2640
     20 C          60.5201   86.1969    7.8646 C.3     1  UNL1        0.0949
     21 C          61.2539   85.0682    7.2031 C.3     1  UNL1        0.0216
     22 C          62.6860   84.7956    7.5562 C.3     1  UNL1        0.0035
     23 C          63.3844   85.6517    8.5707 C.3     1  UNL1        0.0216
     24 C          62.6507   86.7804    9.2321 C.3     1  UNL1        0.0949
     25 N          61.1833   89.0379   10.5551 N.am    1  UNL1       -0.2589
     26 C          62.5613   89.0711   11.1466 C.3     1  UNL1        0.1263
     27 C          62.1710   90.2486   11.9899 C.3     1  UNL1        0.1555
     28 C          60.7929   90.2154   11.3984 C.3     1  UNL1        0.1263
@<TRIPOS>BOND
     1    17    18    2
     2    18    19   am
     3    19    20    1
     4    20    21    1
     5    21    22    1
     6    22    23    1
     7    23    24    1
     8    18    25   am
     9    25    26    1
    10    26    27    1
    11    27    16    1
    12     1    16    1
    13     1     2    1
    14     2     3   ar
    15     3     4   ar
    16     4     5   ar
    17     5     6    1
    18     5     7   ar
    19     7     8   ar
    20     1     9    1
    21     9    10   ar
    22    10    11   ar
    23    11    12   ar
    24    12    13   ar
    25    13    14   ar
    26    14    15    1
    27    27    28    1
    28    24    19    1
    29    28    25    1
    30     8     2   ar
    31    14     9   ar
@<TRIPOS>MOLECULE
*****
 28 31 0 0 0
SMALL
GASTEIGER

@<TRIPOS>ATOM
      1 C          64.4893   90.7840   14.3155 C.3     1  UNL1        0.1620
      2 C          64.1063   89.5080   15.0046 C.ar    1  UNL1        0.0089
      3 C          64.5531   88.1900   14.4449 C.ar    1  UNL1       -0.0007
      4 C          64.1701   86.9139   15.1341 C.ar    1  UNL1        0.0112
      5 C          63.3403   86.9558   16.3830 C.ar    1  UNL1        0.0577
      6 CL         62.9574   85.6798   17.0722 Cl      1  UNL1       -0.0822
      7 C          62.8936   88.2738   16.9427 C.ar    1  UNL1        0.0112
      8 C          63.2766   89.5499   16.2535 C.ar    1  UNL1       -0.0007
      9 C          65.7611   91.4859   14.6894 C.ar    1  UNL1        0.0372
     10 C          66.9646   91.3817   13.8003 C.ar    1  UNL1        0.0023
     11 C          68.2364   92.0836   14.1743 C.ar    1  UNL1        0.0205
     12 C          68.3046   92.8897   15.4374 C.ar    1  UNL1        0.0998
     13 N          67.1011   92.9940   16.3265 N.ar    1  UNL1       -0.2327
     14 C          65.8294   92.2921   15.9526 C.ar    1  UNL1        0.1369
     15 CL         64.6257   92.3963   16.8417 Cl      1  UNL1       -0.0616
     16 O          63.6004   91.3582   13.2523 O.3     1  UNL1       -0.3463
     17 O          59.0661   88.3917   10.6446 O.2     1  UNL1       -0.2523
     18 C          60.5565   88.2765   10.5199 C.2     1  UNL1        0.3073
     19 N          61.1553   87.2588    9.5949 N.am    1  UNL1       -0.2640
     20 C          60.2638   86.3562    8.7946 C.3     1  UNL1        0.0949
     21 C          60.8627   85.3385    7.8697 C.3     1  UNL1        0.0216
     22 C          62.3530   85.2233    7.7450 C.3     1  UNL1        0.0035
     23 C          63.2446   86.1259    8.5453 C.3     1  UNL1        0.0216
     24 C          62.6457   87.1436    9.4702 C.3     1  UNL1        0.0949
     25 N          61.4480   89.1791   11.3202 N.am    1  UNL1       -0.2589
     26 C          62.9314   89.3548   11.4576 C.3     1  UNL1        0.1263
     27 C          62.7089   90.4556   12.4520 C.3     1  UNL1        0.1555
     28 C          61.2256   90.2799   12.3146 C.3     1  UNL1        0.1263
@<TRIPOS>BOND
     1    17    18    2
     2    18    19   am
     3    19    20    1
     4    20    21    1
     5    21    22    1
     6    22    23    1
     7    23    24    1
     8    18    25   am
     9    25    26    1
    10    26    27    1
    11    27    16    1
    12     1    16    1
    13     1     2    1
    14     2     3   ar
    15     3     4   ar
    16     4     5   ar
    17     5     6    1
    18     5     7   ar
    19     7     8   ar
    20     1     9    1
    21     9    10   ar
    22    10    11   ar
    23    11    12   ar
    24    12    13   ar
    25    13    14   ar
    26    14    15    1
    27    27    28    1
    28    24    19    1
    29    28    25    1
    30     8     2   ar
    31    14     9   ar
@<TRIPOS>MOLECULE
*****
 28 31 0 0 0
SMALL
GASTEIGER

@<TRIPOS>ATOM
      1 C          62.1668   86.4010   11.2100 C.3     1  UNL1        0.1620
      2 C          62.0481   85.9127    9.7967 C.ar    1  UNL1        0.0089
      3 C          60.7607   86.0899    9.0476 C.ar    1  UNL1       -0.0007
      4 C          60.6419   85.6016    7.6343 C.ar    1  UNL1        0.0112
      5 C          61.8107   84.9360    6.9701 C.ar    1  UNL1        0.0577
      6 CL         61.6919   84.4477    5.5568 Cl      1  UNL1       -0.0822
      7 C          63.0981   84.7588    7.7192 C.ar    1  UNL1        0.0112
      8 C          63.2168   85.2472    9.1325 C.ar    1  UNL1       -0.0007
      9 C          62.8625   85.5593   12.2384 C.ar    1  UNL1        0.0372
     10 C          63.6611   86.2129   13.3270 C.ar    1  UNL1        0.0023
     11 C          64.3568   85.3712   14.3553 C.ar    1  UNL1        0.0205
     12 C          64.2538   83.8759   14.2951 C.ar    1  UNL1        0.0998
     13 N          63.4552   83.2224   13.2065 N.ar    1  UNL1       -0.2327
     14 C          62.7596   84.0641   12.1782 C.ar    1  UNL1        0.1369
     15 CL         61.9609   83.4105   11.0895 Cl      1  UNL1       -0.0616
     16 O          61.5898   87.7311   11.5949 O.3     1  UNL1       -0.3463
     17 O          64.7147   92.7362   10.4357 O.2     1  UNL1       -0.2523
     18 C          64.5742   91.8924   11.6678 C.2     1  UNL1        0.3073
     19 N          65.3078   92.2674   12.9214 N.am    1  UNL1       -0.2640
     20 C          66.1818   93.4862   12.9427 C.3     1  UNL1        0.0949
     21 C          66.9154   93.8611   14.1962 C.3     1  UNL1        0.0216
     22 C          66.7749   93.0173   15.4283 C.3     1  UNL1        0.0035
     23 C          65.9008   91.7985   15.4070 C.3     1  UNL1        0.0216
     24 C          65.1673   91.4235   14.1535 C.3     1  UNL1        0.0949
     25 N          63.7001   90.6736   11.6465 N.am    1  UNL1       -0.2589
     26 C          63.3242   89.6204   12.6462 C.3     1  UNL1        0.1263
     27 C          62.4640   88.9499   11.6163 C.3     1  UNL1        0.1555
     28 C          62.8399   90.0032   10.6166 C.3     1  UNL1        0.1263
@<TRIPOS>BOND
     1    17    18    2
     2    18    19   am
     3    19    20    1
     4    20    21    1
     5    21    22    1
     6    22    23    1
     7    23    24    1
     8    18    25   am
     9    25    26    1
    10    26    27    1
    11    27    16    1
    12     1    16    1
    13     1     2    1
    14     2     3   ar
    15     3     4   ar
    16     4     5   ar
    17     5     6    1
    18     5     7   ar
    19     7     8   ar
    20     1     9    1
    21     9    10   ar
    22    10    11   ar
    23    11    12   ar
    24    12    13   ar
    25    13    14   ar
    26    14    15    1
    27    27    28    1
    28    24    19    1
    29    28    25    1
    30     8     2   ar
    31    14     9   ar
@<TRIPOS>MOLECULE
*****
 28 31 0 0 0
SMALL
GASTEIGER

@<TRIPOS>ATOM
      1 C          63.6000   82.7572   11.8416 C.3     1  UNL1        0.1620
      2 C          63.0484   83.8965   11.0369 C.ar    1  UNL1        0.0089
      3 C          62.0007   84.7934   11.6268 C.ar    1  UNL1       -0.0007
      4 C          61.4491   85.9327   10.8221 C.ar    1  UNL1        0.0112
      5 C          61.9453   86.1753    9.4274 C.ar    1  UNL1        0.0577
      6 CL         61.3937   87.3146    8.6227 Cl      1  UNL1       -0.0822
      7 C          62.9930   85.2785    8.8375 C.ar    1  UNL1        0.0112
      8 C          63.5446   84.1391    9.6423 C.ar    1  UNL1       -0.0007
      9 C          63.2484   81.3444   11.4804 C.ar    1  UNL1        0.0372
     10 C          63.3732   80.8804   10.0594 C.ar    1  UNL1        0.0023
     11 C          63.0216   79.4677    9.6982 C.ar    1  UNL1        0.0205
     12 C          62.5453   78.5189   10.7579 C.ar    1  UNL1        0.0998
     13 N          62.4206   78.9829   12.1788 N.ar    1  UNL1       -0.2327
     14 C          62.7721   80.3956   12.5401 C.ar    1  UNL1        0.1369
     15 CL         62.6474   80.8597   13.9611 Cl      1  UNL1       -0.0616
     16 O          64.5031   83.0306   13.0077 O.3     1  UNL1       -0.3463
     17 O          62.7199   86.4116   17.6498 O.2     1  UNL1       -0.2523
     18 C          63.3422   86.7527   16.3282 C.2     1  UNL1        0.3073
     19 N          63.6244   88.1840   15.9793 N.am    1  UNL1       -0.2640
     20 C          63.2844   89.2742   16.9518 C.3     1  UNL1        0.0949
     21 C          63.5666   90.7054   16.6029 C.3     1  UNL1        0.0216
     22 C          64.1889   91.0465   15.2813 C.3     1  UNL1        0.0035
     23 C          64.5289   89.9564   14.3088 C.3     1  UNL1        0.0216
     24 C          64.2467   88.5251   14.6578 C.3     1  UNL1        0.0949
     25 N          63.6822   85.6625   15.3557 N.am    1  UNL1       -0.2589
     26 C          64.2919   85.6153   13.9860 C.3     1  UNL1        0.1263
     27 C          64.1631   84.1208   13.9802 C.3     1  UNL1        0.1555
     28 C          63.5534   84.1681   15.3499 C.3     1  UNL1        0.1263
@<TRIPOS>BOND
     1    17    18    2
     2    18    19   am
     3    19    20    1
     4    20    21    1
     5    21    22    1
     6    22    23    1
     7    23    24    1
     8    18    25   am
     9    25    26    1
    10    26    27    1
    11    27    16    1
    12     1    16    1
    13     1     2    1
    14     2     3   ar
    15     3     4   ar
    16     4     5   ar
    17     5     6    1
    18     5     7   ar
    19     7     8   ar
    20     1     9    1
    21     9    10   ar
    22    10    11   ar
    23    11    12   ar
    24    12    13   ar
    25    13    14   ar
    26    14    15    1
    27    27    28    1
    28    24    19    1
    29    28    25    1
    30     8     2   ar
    31    14     9   ar
@<TRIPOS>MOLECULE
*****
 28 31 0 0 0
SMALL
GASTEIGER

@<TRIPOS>ATOM
      1 C          64.6579   90.5766   14.3292 C.3     1  UNL1        0.1620
      2 C          64.1866   89.4235   15.1649 C.ar    1  UNL1        0.0089
      3 C          63.2659   89.6645   16.3243 C.ar    1  UNL1       -0.0007
      4 C          62.7946   88.5115   17.1599 C.ar    1  UNL1        0.0112
      5 C          63.2440   87.1174   16.8362 C.ar    1  UNL1        0.0577
      6 CL         62.7726   85.9644   17.6718 Cl      1  UNL1       -0.0822
      7 C          64.1646   86.8764   15.6767 C.ar    1  UNL1        0.0112
      8 C          64.6360   88.0296   14.8411 C.ar    1  UNL1       -0.0007
      9 C          65.8298   91.3985   14.7780 C.ar    1  UNL1        0.0372
     10 C          67.1304   91.3187   14.0351 C.ar    1  UNL1        0.0023
     11 C          68.3021   92.1406   14.4838 C.ar    1  UNL1        0.0205
     12 C          68.1732   93.0424   15.6756 C.ar    1  UNL1        0.0998
     13 N          66.8726   93.1222   16.4185 N.ar    1  UNL1       -0.2327
     14 C          65.7009   92.3003   15.9697 C.ar    1  UNL1        0.1369
     15 CL         64.4002   92.3801   16.7127 Cl      1  UNL1       -0.0616
     16 O          63.9575   90.9077   13.0448 O.3     1  UNL1       -0.3463
     17 O          61.7676   85.7855   10.7803 O.2     1  UNL1       -0.2523
     18 C          61.5663   87.2249   10.4091 C.2     1  UNL1        0.3073
     19 N          60.6645   87.5855    9.2659 N.am    1  UNL1       -0.2640
     20 C          59.9642   86.5069    8.4939 C.3     1  UNL1        0.0949
     21 C          59.0625   86.8675    7.3508 C.3     1  UNL1        0.0216
     22 C          58.8612   88.3069    6.9796 C.3     1  UNL1        0.0035
     23 C          59.5616   89.3855    7.7515 C.3     1  UNL1        0.0216
     24 C          60.4632   89.0248    8.8947 C.3     1  UNL1        0.0949
     25 N          62.2666   88.3035   11.1811 N.am    1  UNL1       -0.2589
     26 C          62.3116   89.8011   11.1087 C.3     1  UNL1        0.1263
     27 C          63.2571   89.8290   12.2728 C.3     1  UNL1        0.1555
     28 C          63.2122   88.3314   12.3452 C.3     1  UNL1        0.1263
@<TRIPOS>BOND
     1    17    18    2
     2    18    19   am
     3    19    20    1
     4    20    21    1
     5    21    22    1
     6    22    23    1
     7    23    24    1
     8    18    25   am
     9    25    26    1
    10    26    27    1
    11    27    16    1
    12     1    16    1
    13     1     2    1
    14     2     3   ar
    15     3     4   ar
    16     4     5   ar
    17     5     6    1
    18     5     7   ar
    19     7     8   ar
    20     1     9    1
    21     9    10   ar
    22    10    11   ar
    23    11    12   ar
    24    12    13   ar
    25    13    14   ar
    26    14    15    1
    27    27    28    1
    28    24    19    1
    29    28    25    1
    30     8     2   ar
    31    14     9   ar
@<TRIPOS>MOLECULE
*****
 28 31 0 0 0
SMALL
GASTEIGER

@<TRIPOS>ATOM
      1 C          64.2124   90.4601   14.2240 C.3     1  UNL1        0.1620
      2 C          65.4427   91.2397   14.5823 C.ar    1  UNL1        0.0089
      3 C          66.6206   91.2507   13.6536 C.ar    1  UNL1       -0.0007
      4 C          67.8509   92.0303   14.0119 C.ar    1  UNL1        0.0112
      5 C          67.9034   92.7990   15.2990 C.ar    1  UNL1        0.0577
      6 CL         69.1337   93.5786   15.6573 Cl      1  UNL1       -0.0822
      7 C          66.7255   92.7880   16.2276 C.ar    1  UNL1        0.0112
      8 C          65.4952   92.0083   15.8693 C.ar    1  UNL1       -0.0007
      9 C          64.0144   89.0777   14.7717 C.ar    1  UNL1        0.0372
     10 C          64.4430   87.8847   13.9697 C.ar    1  UNL1        0.0023
     11 C          64.2451   86.5025   14.5175 C.ar    1  UNL1        0.0205
     12 C          63.6185   86.3131   15.8671 C.ar    1  UNL1        0.0998
     13 N          63.1899   87.5061   16.6691 N.ar    1  UNL1       -0.2327
     14 C          63.3879   88.8884   16.1213 C.ar    1  UNL1        0.1369
     15 CL         62.9593   90.0814   16.9233 Cl      1  UNL1       -0.0616
     16 O          63.1800   91.0628   13.3179 O.3     1  UNL1       -0.3463
     17 O          58.9622   88.1881   10.1388 O.2     1  UNL1       -0.2523
     18 C          60.4561   88.0623   10.1865 C.2     1  UNL1        0.3073
     19 N          61.1523   87.0575    9.3170 N.am    1  UNL1       -0.2640
     20 C          60.3545   86.1787    8.3998 C.3     1  UNL1        0.0949
     21 C          61.0507   85.1741    7.5304 C.3     1  UNL1        0.0216
     22 C          62.5447   85.0483    7.5781 C.3     1  UNL1        0.0035
     23 C          63.3424   85.9271    8.4952 C.3     1  UNL1        0.0216
     24 C          62.6463   86.9317    9.3647 C.3     1  UNL1        0.0949
     25 N          61.2539   88.9411   11.1036 N.am    1  UNL1       -0.2589
     26 C          62.7122   89.1009   11.4167 C.3     1  UNL1        0.1263
     27 C          62.3822   90.1839   12.4007 C.3     1  UNL1        0.1555
     28 C          60.9239   90.0240   12.0877 C.3     1  UNL1        0.1263
@<TRIPOS>BOND
     1    17    18    2
     2    18    19   am
     3    19    20    1
     4    20    21    1
     5    21    22    1
     6    22    23    1
     7    23    24    1
     8    18    25   am
     9    25    26    1
    10    26    27    1
    11    27    16    1
    12     1    16    1
    13     1     2    1
    14     2     3   ar
    15     3     4   ar
    16     4     5   ar
    17     5     6    1
    18     5     7   ar
    19     7     8   ar
    20     1     9    1
    21     9    10   ar
    22    10    11   ar
    23    11    12   ar
    24    12    13   ar
    25    13    14   ar
    26    14    15    1
    27    27    28    1
    28    24    19    1
    29    28    25    1
    30     8     2   ar
    31    14     9   ar
@<TRIPOS>MOLECULE
*****
 28 31 0 0 0
SMALL
GASTEIGER

@<TRIPOS>ATOM
      1 C          61.7992   87.6867   11.0262 C.3     1  UNL1        0.1620
      2 C          61.7386   86.8611    9.7754 C.ar    1  UNL1        0.0089
      3 C          60.4881   86.8450    8.9472 C.ar    1  UNL1       -0.0007
      4 C          60.4274   86.0194    7.6963 C.ar    1  UNL1        0.0112
      5 C          61.6174   85.2098    7.2737 C.ar    1  UNL1        0.0577
      6 CL         61.5568   84.3841    6.0228 Cl      1  UNL1       -0.0822
      7 C          62.8679   85.2258    8.1019 C.ar    1  UNL1        0.0112
      8 C          62.9285   86.0515    9.3528 C.ar    1  UNL1       -0.0007
      9 C          60.8128   88.7962   11.2411 C.ar    1  UNL1        0.0372
     10 C          59.5445   88.5359   11.9985 C.ar    1  UNL1        0.0023
     11 C          58.5582   89.6454   12.2133 C.ar    1  UNL1        0.0205
     12 C          58.8401   91.0151   11.6708 C.ar    1  UNL1        0.0998
     13 N          60.1084   91.2754   10.9134 N.ar    1  UNL1       -0.2327
     14 C          61.0947   90.1659   10.6986 C.ar    1  UNL1        0.1369
     15 CL         62.3631   90.4262    9.9411 Cl      1  UNL1       -0.0616
     16 O          62.8462   87.4029   12.0622 O.3     1  UNL1       -0.3463
     17 O          63.3580   91.5612   16.3758 O.2     1  UNL1       -0.2523
     18 C          64.3001   91.0867   15.3093 C.2     1  UNL1        0.3073
     19 N          65.6681   91.6912   15.1939 N.am    1  UNL1       -0.2640
     20 C          66.0940   92.7701   16.1450 C.3     1  UNL1        0.0949
     21 C          67.4619   93.3746   16.0296 C.3     1  UNL1        0.0216
     22 C          68.4040   92.9001   14.9631 C.3     1  UNL1        0.0035
     23 C          67.9782   91.8212   14.0121 C.3     1  UNL1        0.0216
     24 C          66.6102   91.2167   14.1275 C.3     1  UNL1        0.0949
     25 N          63.8743   90.0078   14.3583 N.am    1  UNL1       -0.2589
     26 C          64.5163   89.2979   13.2033 C.3     1  UNL1        0.1263
     27 C          63.2721   88.4819   13.0133 C.3     1  UNL1        0.1555
     28 C          62.6301   89.1918   14.1682 C.3     1  UNL1        0.1263
@<TRIPOS>BOND
     1    17    18    2
     2    18    19   am
     3    19    20    1
     4    20    21    1
     5    21    22    1
     6    22    23    1
     7    23    24    1
     8    18    25   am
     9    25    26    1
    10    26    27    1
    11    27    16    1
    12     1    16    1
    13     1     2    1
    14     2     3   ar
    15     3     4   ar
    16     4     5   ar
    17     5     6    1
    18     5     7   ar
    19     7     8   ar
    20     1     9    1
    21     9    10   ar
    22    10    11   ar
    23    11    12   ar
    24    12    13   ar
    25    13    14   ar
    26    14    15    1
    27    27    28    1
    28    24    19    1
    29    28    25    1
    30     8     2   ar
    31    14     9   ar
