@<TRIPOS>MOLECULE
*****
 35 39 0 0 0
SMALL
GASTEIGER

@<TRIPOS>ATOM
      1 C          63.6030   86.5992   14.3129 C.3     1  UNL1        0.1232
      2 C          63.7899   86.7024   15.7976 C.3     1  UNL1        0.0216
      3 C          63.5168   85.5148   16.6722 C.3     1  UNL1        0.0030
      4 C          63.0567   84.2240   16.0621 C.3     1  UNL1        0.0178
      5 C          62.8698   84.1208   14.5774 C.3     1  UNL1        0.0796
      6 N          63.1430   85.3084   13.7028 N.3     1  UNL1       -0.1546
      7 C          62.4098   82.8300   13.9673 C.3     1  UNL1        0.0164
      8 C          62.4702   81.8240   12.8564 C.3     1  UNL1        0.0014
      9 C          61.5525   81.6004   14.0216 C.3     1  UNL1        0.0014
     10 S          62.9561   85.2052   12.2180 S.O2    1  UNL1        0.0633
     11 O          61.6298   85.8957   12.3370 O.2     1  UNL1       -0.1528
     12 O          64.2824   84.5148   12.0990 O.2     1  UNL1       -0.1528
     13 C          62.7692   85.1021   10.7333 C.ar    1  UNL1        0.1223
     14 C          61.8211   86.0281   10.0306 C.ar    1  UNL1        0.0208
     15 C          61.6342   85.9249    8.5458 C.ar    1  UNL1        0.0128
     16 C          62.3953   84.8957    7.7638 C.ar    1  UNL1        0.0578
     17 CL         62.2084   84.7926    6.2791 Cl      1  UNL1       -0.0822
     18 C          63.3434   83.9697    8.4665 C.ar    1  UNL1        0.0128
     19 C          63.5303   84.0729    9.9512 C.ar    1  UNL1        0.0208
     20 C          63.8762   87.7868   13.4382 C.3     1  UNL1        0.2276
     21 O          63.2569   89.1143   13.7609 O.3     1  UNL1       -0.4330
     22 O          64.3900   90.3023   15.7745 O.2     1  UNL1       -0.2262
     23 C          64.1055   90.2257   14.3038 C.2     1  UNL1        0.4049
     24 N          64.6695   91.2605   13.3759 N.am    1  UNL1       -0.2459
     25 C          64.3849   91.1840   11.9051 C.3     1  UNL1        0.0981
     26 C          64.9489   92.2188   10.9772 C.3     1  UNL1        0.0376
     27 C          65.7975   93.3302   11.5201 C.3     1  UNL1        0.0609
     28 C          66.0821   93.4068   12.9908 C.3     1  UNL1        0.0376
     29 C          65.5180   92.3719   13.9188 C.3     1  UNL1        0.0981
     30 N          66.3615   94.3651   10.5922 N.3     1  UNL1       -0.2738
     31 C          67.0328   93.9443    9.3185 C.3     1  UNL1        0.0720
     32 C          67.5968   94.9791    8.3906 C.3     1  UNL1        0.0174
     33 C          67.4895   96.4348    8.7364 C.3     1  UNL1        0.0029
     34 C          66.8181   96.8556   10.0101 C.3     1  UNL1        0.0174
     35 C          66.2541   95.8207   10.9380 C.3     1  UNL1        0.0720
@<TRIPOS>BOND
     1    22    23    2
     2    23    21    1
     3    21    20    1
     4     1    20    1
     5     1     2    1
     6     2     3    1
     7     3     4    1
     8     4     5    1
     9     5     7    1
    10     7     8    1
    11     8     9    1
    12     5     6    1
    13     6    10    1
    14    10    11    2
    15    10    12    2
    16    10    13    1
    17    13    14   ar
    18    14    15   ar
    19    15    16   ar
    20    16    17    1
    21    16    18   ar
    22    18    19   ar
    23    23    24   am
    24    24    25    1
    25    25    26    1
    26    26    27    1
    27    27    30    1
    28    30    31    1
    29    31    32    1
    30    32    33    1
    31    33    34    1
    32    34    35    1
    33    27    28    1
    34    28    29    1
    35     6     1    1
    36    19    13   ar
    37    29    24    1
    38     9     7    1
    39    35    30    1
@<TRIPOS>MOLECULE
*****
 35 39 0 0 0
SMALL
GASTEIGER

@<TRIPOS>ATOM
      1 C          63.8796   91.4808   11.7203 C.3     1  UNL1        0.1232
      2 C          64.2707   92.4741   10.6666 C.3     1  UNL1        0.0216
      3 C          65.4395   93.3866   10.8930 C.3     1  UNL1        0.0030
      4 C          66.2172   93.3058   12.1731 C.3     1  UNL1        0.0178
      5 C          65.8261   92.3124   13.2268 C.3     1  UNL1        0.0796
      6 N          64.6573   91.4000   13.0004 N.3     1  UNL1       -0.1546
      7 C          66.6038   92.2316   14.5069 C.3     1  UNL1        0.0164
      8 C          67.6865   91.6009   15.3315 C.3     1  UNL1        0.0014
      9 C          66.8680   92.7223   15.8995 C.3     1  UNL1        0.0014
     10 S          64.2662   90.4066   14.0542 S.O2    1  UNL1        0.0633
     11 O          63.5700   91.4926   14.8195 O.2     1  UNL1       -0.1528
     12 O          64.9624   89.3205   13.2888 O.2     1  UNL1       -0.1528
     13 C          63.8751   89.4133   15.1078 C.ar    1  UNL1        0.1223
     14 C          64.1568   87.9541   14.9045 C.ar    1  UNL1        0.0208
     15 C          63.7656   86.9607   15.9583 C.ar    1  UNL1        0.0128
     16 C          63.0928   87.4266   17.2153 C.ar    1  UNL1        0.0578
     17 CL         62.7016   86.4333   18.2690 Cl      1  UNL1       -0.0822
     18 C          62.8110   88.8858   17.4186 C.ar    1  UNL1        0.0128
     19 C          63.2022   89.8791   16.3650 C.ar    1  UNL1        0.0208
     20 C          62.7108   90.5682   11.4940 C.3     1  UNL1        0.2276
     21 O          62.0114   90.5604   10.1671 O.3     1  UNL1       -0.4330
     22 O          60.4012   89.3597    8.5192 O.2     1  UNL1       -0.2262
     23 C          61.3643   89.3026    9.6677 C.2     1  UNL1        0.4049
     24 N          61.6803   87.9879   10.3169 N.am    1  UNL1       -0.2459
     25 C          62.6434   87.9308   11.4654 C.3     1  UNL1        0.0981
     26 C          62.9594   86.6160   12.1146 C.3     1  UNL1        0.0376
     27 C          62.3124   85.3582   11.6152 C.3     1  UNL1        0.0609
     28 C          61.3492   85.4153   10.4667 C.3     1  UNL1        0.0376
     29 C          61.0332   86.7302    9.8175 C.3     1  UNL1        0.0981
     30 N          62.6284   84.0435   12.2644 N.3     1  UNL1       -0.2738
     31 C          62.7389   83.9516   13.7575 C.3     1  UNL1        0.0720
     32 C          63.0549   82.6368   14.4067 C.3     1  UNL1        0.0174
     33 C          63.2605   81.4139   13.5628 C.3     1  UNL1        0.0029
     34 C          63.1500   81.5057   12.0697 C.3     1  UNL1        0.0174
     35 C          62.8339   82.8206   11.4205 C.3     1  UNL1        0.0720
@<TRIPOS>BOND
     1    22    23    2
     2    23    21    1
     3    21    20    1
     4     1    20    1
     5     1     2    1
     6     2     3    1
     7     3     4    1
     8     4     5    1
     9     5     7    1
    10     7     8    1
    11     8     9    1
    12     5     6    1
    13     6    10    1
    14    10    11    2
    15    10    12    2
    16    10    13    1
    17    13    14   ar
    18    14    15   ar
    19    15    16   ar
    20    16    17    1
    21    16    18   ar
    22    18    19   ar
    23    23    24   am
    24    24    25    1
    25    25    26    1
    26    26    27    1
    27    27    30    1
    28    30    31    1
    29    31    32    1
    30    32    33    1
    31    33    34    1
    32    34    35    1
    33    27    28    1
    34    28    29    1
    35     6     1    1
    36    19    13   ar
    37    29    24    1
    38     9     7    1
    39    35    30    1
@<TRIPOS>MOLECULE
*****
 35 39 0 0 0
SMALL
GASTEIGER

@<TRIPOS>ATOM
      1 C          61.8773   89.1098   11.4538 C.3     1  UNL1        0.1232
      2 C          61.3120   90.4909   11.3022 C.3     1  UNL1        0.0216
      3 C          60.2879   90.7698   10.2423 C.3     1  UNL1        0.0030
      4 C          59.8291   89.6676    9.3341 C.3     1  UNL1        0.0178
      5 C          60.3944   88.2866    9.4858 C.3     1  UNL1        0.0796
      6 N          61.4185   88.0077   10.5456 N.3     1  UNL1       -0.1546
      7 C          59.9356   87.1844    8.5776 C.3     1  UNL1        0.0164
      8 C          60.2237   85.9263    7.8133 C.3     1  UNL1        0.0014
      9 C          58.8529   86.5337    7.7689 C.3     1  UNL1        0.0014
     10 S          61.9839   86.6266   10.6973 S.O2    1  UNL1        0.0633
     11 O          61.0786   86.3846   11.8686 O.2     1  UNL1       -0.1528
     12 O          62.8892   86.8685    9.5261 O.2     1  UNL1       -0.1528
     13 C          62.5493   85.2455   10.8491 C.ar    1  UNL1        0.1223
     14 C          63.2824   84.6056    9.7076 C.ar    1  UNL1        0.0208
     15 C          63.8478   83.2245    9.8594 C.ar    1  UNL1        0.0128
     16 C          63.6799   82.4833   11.1526 C.ar    1  UNL1        0.0578
     17 CL         64.2453   81.1023   11.3043 Cl      1  UNL1       -0.0822
     18 C          62.9468   83.1232   12.2941 C.ar    1  UNL1        0.0128
     19 C          62.3814   84.5043   12.1424 C.ar    1  UNL1        0.0208
     20 C          62.9015   88.8308   12.5137 C.3     1  UNL1        0.2276
     21 O          62.8117   89.5195   13.8432 O.3     1  UNL1       -0.4330
     22 O          64.4478   90.2663   15.7182 O.2     1  UNL1       -0.2262
     23 C          63.9375   90.3923   14.3134 C.2     1  UNL1        0.4049
     24 N          64.5529   91.3910   13.3786 N.am    1  UNL1       -0.2459
     25 C          64.0426   91.5170   11.9737 C.3     1  UNL1        0.0981
     26 C          64.6580   92.5157   11.0390 C.3     1  UNL1        0.0376
     27 C          65.7838   93.3885   11.5091 C.3     1  UNL1        0.0609
     28 C          66.2941   93.2625   12.9140 C.3     1  UNL1        0.0376
     29 C          65.6786   92.2637   13.8488 C.3     1  UNL1        0.0981
     30 N          66.3992   94.3873   10.5744 N.3     1  UNL1       -0.2738
     31 C          66.1777   95.8546   10.7929 C.3     1  UNL1        0.0720
     32 C          66.7932   96.8534    9.8582 C.3     1  UNL1        0.0174
     33 C          67.6301   96.3847    8.7049 C.3     1  UNL1        0.0029
     34 C          67.8516   94.9174    8.4864 C.3     1  UNL1        0.0174
     35 C          67.2361   93.9186    9.4212 C.3     1  UNL1        0.0720
@<TRIPOS>BOND
     1    22    23    2
     2    23    21    1
     3    21    20    1
     4     1    20    1
     5     1     2    1
     6     2     3    1
     7     3     4    1
     8     4     5    1
     9     5     7    1
    10     7     8    1
    11     8     9    1
    12     5     6    1
    13     6    10    1
    14    10    11    2
    15    10    12    2
    16    10    13    1
    17    13    14   ar
    18    14    15   ar
    19    15    16   ar
    20    16    17    1
    21    16    18   ar
    22    18    19   ar
    23    23    24   am
    24    24    25    1
    25    25    26    1
    26    26    27    1
    27    27    30    1
    28    30    31    1
    29    31    32    1
    30    32    33    1
    31    33    34    1
    32    34    35    1
    33    27    28    1
    34    28    29    1
    35     6     1    1
    36    19    13   ar
    37    29    24    1
    38     9     7    1
    39    35    30    1
@<TRIPOS>MOLECULE
*****
 35 39 0 0 0
SMALL
GASTEIGER

@<TRIPOS>ATOM
      1 C          64.0492   90.5645   15.2409 C.3     1  UNL1        0.1232
      2 C          64.9230   91.3476   16.1753 C.3     1  UNL1        0.0216
      3 C          65.8411   92.4037   15.6355 C.3     1  UNL1        0.0030
      4 C          65.8855   92.6767   14.1612 C.3     1  UNL1        0.0178
      5 C          65.0117   91.8936   13.2268 C.3     1  UNL1        0.0796
      6 N          64.0936   90.8375   13.7667 N.3     1  UNL1       -0.1546
      7 C          65.0561   92.1666   11.7525 C.3     1  UNL1        0.0164
      8 C          64.4445   92.0392   10.3888 C.3     1  UNL1        0.0014
      9 C          65.7445   92.7669   10.5627 C.3     1  UNL1        0.0014
     10 S          63.2197   90.0543   12.8322 S.O2    1  UNL1        0.0633
     11 O          64.1849   88.9076   12.8907 O.2     1  UNL1       -0.1528
     12 O          62.2545   91.2009   12.7738 O.2     1  UNL1       -0.1528
     13 C          62.3459   89.2711   11.8979 C.ar    1  UNL1        0.1223
     14 C          62.7069   87.8601   11.5390 C.ar    1  UNL1        0.0208
     15 C          61.8331   87.0769   10.6045 C.ar    1  UNL1        0.0128
     16 C          60.5983   87.7047   10.0291 C.ar    1  UNL1        0.0578
     17 CL         59.7245   86.9215    9.0947 Cl      1  UNL1       -0.0822
     18 C          60.2373   89.1157   10.3880 C.ar    1  UNL1        0.0128
     19 C          61.1111   89.8989   11.3224 C.ar    1  UNL1        0.0208
     20 C          63.1310   89.5083   15.7808 C.3     1  UNL1        0.2276
     21 O          63.5949   88.6034   16.8835 O.3     1  UNL1       -0.4330
     22 O          62.1982   86.9885   18.3638 O.2     1  UNL1       -0.2262
     23 C          62.9353   87.2718   17.0885 C.2     1  UNL1        0.4049
     24 N          63.0130   86.2237   16.0184 N.am    1  UNL1       -0.2459
     25 C          63.7502   86.5070   14.7431 C.3     1  UNL1        0.0981
     26 C          63.8279   85.4589   13.6729 C.3     1  UNL1        0.0376
     27 C          63.1683   84.1273   13.8780 C.3     1  UNL1        0.0609
     28 C          62.4311   83.8439   15.1532 C.3     1  UNL1        0.0376
     29 C          62.3535   84.8922   16.2234 C.3     1  UNL1        0.0981
     30 N          63.2460   83.0792   12.8078 N.3     1  UNL1       -0.2738
     31 C          62.6670   81.7166   13.0491 C.3     1  UNL1        0.0720
     32 C          62.7446   80.6685   11.9789 C.3     1  UNL1        0.0174
     33 C          63.4013   80.9829   10.6674 C.3     1  UNL1        0.0029
     34 C          63.9804   82.3454   10.4261 C.3     1  UNL1        0.0174
     35 C          63.9027   83.3936   11.4964 C.3     1  UNL1        0.0720
@<TRIPOS>BOND
     1    22    23    2
     2    23    21    1
     3    21    20    1
     4     1    20    1
     5     1     2    1
     6     2     3    1
     7     3     4    1
     8     4     5    1
     9     5     7    1
    10     7     8    1
    11     8     9    1
    12     5     6    1
    13     6    10    1
    14    10    11    2
    15    10    12    2
    16    10    13    1
    17    13    14   ar
    18    14    15   ar
    19    15    16   ar
    20    16    17    1
    21    16    18   ar
    22    18    19   ar
    23    23    24   am
    24    24    25    1
    25    25    26    1
    26    26    27    1
    27    27    30    1
    28    30    31    1
    29    31    32    1
    30    32    33    1
    31    33    34    1
    32    34    35    1
    33    27    28    1
    34    28    29    1
    35     6     1    1
    36    19    13   ar
    37    29    24    1
    38     9     7    1
    39    35    30    1
@<TRIPOS>MOLECULE
*****
 35 39 0 0 0
SMALL
GASTEIGER

@<TRIPOS>ATOM
      1 C          64.0609   90.9950   12.6744 C.3     1  UNL1        0.1232
      2 C          63.5412   89.9771   13.6458 C.3     1  UNL1        0.0216
      3 C          64.2700   89.7282   14.9330 C.3     1  UNL1        0.0030
      4 C          65.5185   90.4972   15.2488 C.3     1  UNL1        0.0178
      5 C          66.0383   91.5152   14.2774 C.3     1  UNL1        0.0796
      6 N          65.3095   91.7641   12.9902 N.3     1  UNL1       -0.1546
      7 C          67.2868   92.2842   14.5932 C.3     1  UNL1        0.0164
      8 C          68.7742   92.4465   14.4873 C.3     1  UNL1        0.0014
      9 C          67.9619   93.4538   15.2460 C.3     1  UNL1        0.0014
     10 S          65.8292   92.7820   12.0188 S.O2    1  UNL1        0.0633
     11 O          66.2480   91.6815   11.0896 O.2     1  UNL1       -0.1528
     12 O          65.4104   93.8826   12.9479 O.2     1  UNL1       -0.1528
     13 C          66.3489   93.7999   11.0473 C.ar    1  UNL1        0.1223
     14 C          66.1340   95.2618   11.3059 C.ar    1  UNL1        0.0208
     15 C          66.6537   96.2797   10.3344 C.ar    1  UNL1        0.0128
     16 C          67.3885   95.8357    9.1044 C.ar    1  UNL1        0.0578
     17 CL         67.9082   96.8536    8.1329 Cl      1  UNL1       -0.0822
     18 C          67.6034   94.3739    8.8457 C.ar    1  UNL1        0.0128
     19 C          67.0837   93.3560    9.8172 C.ar    1  UNL1        0.0208
     20 C          63.3321   91.2440   11.3872 C.3     1  UNL1        0.2276
     21 O          61.9388   90.7207   11.2008 O.3     1  UNL1       -0.4330
     22 O          61.1026   90.0445    8.8357 O.2     1  UNL1       -0.2262
     23 C          61.6661   89.6631   10.1726 C.2     1  UNL1        0.4049
     24 N          61.9568   88.2243   10.4811 N.am    1  UNL1       -0.2459
     25 C          62.5202   87.8430   11.8180 C.3     1  UNL1        0.0981
     26 C          62.8109   86.4042   12.1266 C.3     1  UNL1        0.0376
     27 C          62.5382   85.3466   11.0983 C.3     1  UNL1        0.0609
     28 C          61.9747   85.7280    9.7615 C.3     1  UNL1        0.0376
     29 C          61.6840   87.1669    9.4529 C.3     1  UNL1        0.0981
     30 N          62.8289   83.9078   11.4069 N.3     1  UNL1       -0.2738
     31 C          63.2689   82.9803   10.3133 C.3     1  UNL1        0.0720
     32 C          63.5596   81.5414   10.6218 C.3     1  UNL1        0.0174
     33 C          63.4102   81.0301   12.0241 C.3     1  UNL1        0.0029
     34 C          62.9702   81.9577   13.1178 C.3     1  UNL1        0.0174
     35 C          62.6795   83.3966   12.8091 C.3     1  UNL1        0.0720
@<TRIPOS>BOND
     1    22    23    2
     2    23    21    1
     3    21    20    1
     4     1    20    1
     5     1     2    1
     6     2     3    1
     7     3     4    1
     8     4     5    1
     9     5     7    1
    10     7     8    1
    11     8     9    1
    12     5     6    1
    13     6    10    1
    14    10    11    2
    15    10    12    2
    16    10    13    1
    17    13    14   ar
    18    14    15   ar
    19    15    16   ar
    20    16    17    1
    21    16    18   ar
    22    18    19   ar
    23    23    24   am
    24    24    25    1
    25    25    26    1
    26    26    27    1
    27    27    30    1
    28    30    31    1
    29    31    32    1
    30    32    33    1
    31    33    34    1
    32    34    35    1
    33    27    28    1
    34    28    29    1
    35     6     1    1
    36    19    13   ar
    37    29    24    1
    38     9     7    1
    39    35    30    1
@<TRIPOS>MOLECULE
*****
 35 39 0 0 0
SMALL
GASTEIGER

@<TRIPOS>ATOM
      1 C          63.8193   86.9199   13.5976 C.3     1  UNL1        0.1232
      2 C          64.6225   86.7024   14.8456 C.3     1  UNL1        0.0216
      3 C          64.8240   85.3136   15.3753 C.3     1  UNL1        0.0030
      4 C          64.2223   84.1423   14.6569 C.3     1  UNL1        0.0178
      5 C          63.4192   84.3598   13.4089 C.3     1  UNL1        0.0796
      6 N          63.2176   85.7486   12.8792 N.3     1  UNL1       -0.1546
      7 C          62.8175   83.1885   12.6905 C.3     1  UNL1        0.0164
      8 C          62.1403   81.8506   12.7268 C.3     1  UNL1        0.0014
      9 C          62.4526   82.4977   11.4101 C.3     1  UNL1        0.0014
     10 S          62.4144   85.9661   11.6312 S.O2    1  UNL1        0.0633
     11 O          63.5474   85.4282   10.8084 O.2     1  UNL1       -0.1528
     12 O          61.2815   86.5040   12.4540 O.2     1  UNL1       -0.1528
     13 C          61.6113   86.1836   10.3831 C.ar    1  UNL1        0.1223
     14 C          61.9480   85.4261    9.1330 C.ar    1  UNL1        0.0208
     15 C          61.1448   85.6436    7.8849 C.ar    1  UNL1        0.0128
     16 C          60.0050   86.6187    7.8870 C.ar    1  UNL1        0.0578
     17 CL         59.2019   86.8362    6.6390 Cl      1  UNL1       -0.0822
     18 C          59.6683   87.3762    9.1371 C.ar    1  UNL1        0.0128
     19 C          60.4714   87.1587   10.3852 C.ar    1  UNL1        0.0208
     20 C          63.6177   88.3088   13.0679 C.3     1  UNL1        0.2276
     21 O          63.0818   89.3837   13.9663 O.3     1  UNL1       -0.4330
     22 O          64.3098   90.5724   15.9231 O.2     1  UNL1       -0.2262
     23 C          63.9905   90.4698   14.4611 C.2     1  UNL1        0.4049
     24 N          64.5798   91.4532   13.4939 N.am    1  UNL1       -0.2459
     25 C          64.2605   91.3506   12.0319 C.3     1  UNL1        0.0981
     26 C          64.8499   92.3340   11.0647 C.3     1  UNL1        0.0376
     27 C          65.7586   93.4201   11.5595 C.3     1  UNL1        0.0609
     28 C          66.0779   93.5227   13.0215 C.3     1  UNL1        0.0376
     29 C          65.4885   92.5392   13.9887 C.3     1  UNL1        0.0981
     30 N          66.3479   94.4035   10.5923 N.3     1  UNL1       -0.2738
     31 C          66.3472   95.8678   10.9175 C.3     1  UNL1        0.0720
     32 C          66.9365   96.8513    9.9503 C.3     1  UNL1        0.0174
     33 C          67.5266   96.3704    8.6578 C.3     1  UNL1        0.0029
     34 C          67.5273   94.9061    8.3325 C.3     1  UNL1        0.0174
     35 C          66.9379   93.9227    9.2998 C.3     1  UNL1        0.0720
@<TRIPOS>BOND
     1    22    23    2
     2    23    21    1
     3    21    20    1
     4     1    20    1
     5     1     2    1
     6     2     3    1
     7     3     4    1
     8     4     5    1
     9     5     7    1
    10     7     8    1
    11     8     9    1
    12     5     6    1
    13     6    10    1
    14    10    11    2
    15    10    12    2
    16    10    13    1
    17    13    14   ar
    18    14    15   ar
    19    15    16   ar
    20    16    17    1
    21    16    18   ar
    22    18    19   ar
    23    23    24   am
    24    24    25    1
    25    25    26    1
    26    26    27    1
    27    27    30    1
    28    30    31    1
    29    31    32    1
    30    32    33    1
    31    33    34    1
    32    34    35    1
    33    27    28    1
    34    28    29    1
    35     6     1    1
    36    19    13   ar
    37    29    24    1
    38     9     7    1
    39    35    30    1
@<TRIPOS>MOLECULE
*****
 35 39 0 0 0
SMALL
GASTEIGER

@<TRIPOS>ATOM
      1 C          60.9071   88.0738   10.2024 C.3     1  UNL1        0.1232
      2 C          60.1378   89.1941    9.5674 C.3     1  UNL1        0.0216
      3 C          59.7245   89.0990    8.1287 C.3     1  UNL1        0.0030
      4 C          60.0805   87.8836    7.3248 C.3     1  UNL1        0.0178
      5 C          60.8497   86.7633    7.9598 C.3     1  UNL1        0.0796
      6 N          61.2630   86.8584    9.3985 N.3     1  UNL1       -0.1546
      7 C          61.2057   85.5479    7.1559 C.3     1  UNL1        0.0164
      8 C          62.2373   84.6922    6.4826 C.3     1  UNL1        0.0014
      9 C          60.7906   84.2986    6.4370 C.3     1  UNL1        0.0014
     10 S          62.0323   85.7381   10.0335 S.O2    1  UNL1        0.0633
     11 O          63.1835   86.0051    9.1097 O.2     1  UNL1       -0.1528
     12 O          60.8811   85.4711   10.9573 O.2     1  UNL1       -0.1528
     13 C          62.8016   84.6179   10.6685 C.ar    1  UNL1        0.1223
     14 C          62.7051   84.3855   12.1472 C.ar    1  UNL1        0.0208
     15 C          63.4745   83.2651   12.7821 C.ar    1  UNL1        0.0128
     16 C          64.3403   82.3773   11.9383 C.ar    1  UNL1        0.0578
     17 CL         65.1096   81.2571   12.5733 Cl      1  UNL1       -0.0822
     18 C          64.4368   82.6097   10.4596 C.ar    1  UNL1        0.0128
     19 C          63.6675   83.7300    9.8246 C.ar    1  UNL1        0.0208
     20 C          61.3204   88.1689   11.6412 C.3     1  UNL1        0.2276
     21 O          61.1333   89.4539   12.3920 O.3     1  UNL1       -0.4330
     22 O          62.4814   89.7722   14.5900 O.2     1  UNL1       -0.2262
     23 C          62.2862   90.0650   13.1319 C.2     1  UNL1        0.4049
     24 N          63.2437   90.9689   12.4136 N.am    1  UNL1       -0.2459
     25 C          63.0485   91.2617   10.9555 C.3     1  UNL1        0.0981
     26 C          64.0061   92.1657   10.2373 C.3     1  UNL1        0.0376
     27 C          65.1590   92.7768   10.9771 C.3     1  UNL1        0.0609
     28 C          65.3542   92.4840   12.4353 C.3     1  UNL1        0.0376
     29 C          64.3966   91.5800   13.1535 C.3     1  UNL1        0.0981
     30 N          66.1166   93.6807   10.2589 N.3     1  UNL1       -0.2738
     31 C          67.3591   93.1152    9.6374 C.3     1  UNL1        0.0720
     32 C          68.3167   94.0191    8.9192 C.3     1  UNL1        0.0174
     33 C          68.0318   95.4887    8.8224 C.3     1  UNL1        0.0029
     34 C          66.7892   96.0542    9.4439 C.3     1  UNL1        0.0174
     35 C          65.8316   95.1502   10.1622 C.3     1  UNL1        0.0720
@<TRIPOS>BOND
     1    22    23    2
     2    23    21    1
     3    21    20    1
     4     1    20    1
     5     1     2    1
     6     2     3    1
     7     3     4    1
     8     4     5    1
     9     5     7    1
    10     7     8    1
    11     8     9    1
    12     5     6    1
    13     6    10    1
    14    10    11    2
    15    10    12    2
    16    10    13    1
    17    13    14   ar
    18    14    15   ar
    19    15    16   ar
    20    16    17    1
    21    16    18   ar
    22    18    19   ar
    23    23    24   am
    24    24    25    1
    25    25    26    1
    26    26    27    1
    27    27    30    1
    28    30    31    1
    29    31    32    1
    30    32    33    1
    31    33    34    1
    32    34    35    1
    33    27    28    1
    34    28    29    1
    35     6     1    1
    36    19    13   ar
    37    29    24    1
    38     9     7    1
    39    35    30    1
@<TRIPOS>MOLECULE
*****
 35 39 0 0 0
SMALL
GASTEIGER

@<TRIPOS>ATOM
      1 C          59.9191   87.8571   10.1712 C.3     1  UNL1        0.1232
      2 C          59.0067   88.3364    9.0813 C.3     1  UNL1        0.0216
      3 C          59.1874   87.8372    7.6784 C.3     1  UNL1        0.0030
      4 C          60.2803   86.8586    7.3654 C.3     1  UNL1        0.0178
      5 C          61.1926   86.3793    8.4553 C.3     1  UNL1        0.0796
      6 N          61.0120   86.8785    9.8582 N.3     1  UNL1       -0.1546
      7 C          62.2855   85.4007    8.1423 C.3     1  UNL1        0.0164
      8 C          63.4380   84.5527    8.5924 C.3     1  UNL1        0.0014
      9 C          63.0260   84.5539    7.1501 C.3     1  UNL1        0.0014
     10 S          61.9243   86.3992   10.9482 S.O2    1  UNL1        0.0633
     11 O          62.7106   87.6728   10.8501 O.2     1  UNL1       -0.1528
     12 O          61.1380   85.1256   11.0463 O.2     1  UNL1       -0.1528
     13 C          62.8366   85.9199   12.0381 C.ar    1  UNL1        0.1223
     14 C          63.4119   86.8982   13.0189 C.ar    1  UNL1        0.0208
     15 C          64.3243   86.4188   14.1089 C.ar    1  UNL1        0.0128
     16 C          64.6613   84.9613   14.2180 C.ar    1  UNL1        0.0578
     17 CL         65.5736   84.4820   15.3079 Cl      1  UNL1       -0.0822
     18 C          64.0860   83.9830   13.2371 C.ar    1  UNL1        0.0128
     19 C          63.1737   84.4623   12.1472 C.ar    1  UNL1        0.0208
     20 C          59.7385   88.3563   11.5742 C.3     1  UNL1        0.2276
     21 O          60.1971   89.7356   11.9443 O.3     1  UNL1       -0.4330
     22 O          61.2419   90.6104    9.7322 O.2     1  UNL1       -0.2262
     23 C          61.3416   90.3679   11.2092 C.2     1  UNL1        0.4049
     24 N          62.5857   90.7578   11.9509 N.am    1  UNL1       -0.2459
     25 C          62.6854   90.5153   13.4278 C.3     1  UNL1        0.0981
     26 C          63.9294   90.9051   14.1696 C.3     1  UNL1        0.0376
     27 C          65.0739   91.5374   13.4344 C.3     1  UNL1        0.0609
     28 C          64.9742   91.7799   11.9575 C.3     1  UNL1        0.0376
     29 C          63.7301   91.3901   11.2158 C.3     1  UNL1        0.0981
     30 N          66.3180   91.9272   14.1762 N.3     1  UNL1       -0.2738
     31 C          66.2289   92.3842   15.6021 C.3     1  UNL1        0.0720
     32 C          67.4730   92.7740   16.3439 C.3     1  UNL1        0.0174
     33 C          68.8063   92.7069   15.6597 C.3     1  UNL1        0.0029
     34 C          68.8953   92.2499   14.2338 C.3     1  UNL1        0.0174
     35 C          67.6512   91.8601   13.4920 C.3     1  UNL1        0.0720
@<TRIPOS>BOND
     1    22    23    2
     2    23    21    1
     3    21    20    1
     4     1    20    1
     5     1     2    1
     6     2     3    1
     7     3     4    1
     8     4     5    1
     9     5     7    1
    10     7     8    1
    11     8     9    1
    12     5     6    1
    13     6    10    1
    14    10    11    2
    15    10    12    2
    16    10    13    1
    17    13    14   ar
    18    14    15   ar
    19    15    16   ar
    20    16    17    1
    21    16    18   ar
    22    18    19   ar
    23    23    24   am
    24    24    25    1
    25    25    26    1
    26    26    27    1
    27    27    30    1
    28    30    31    1
    29    31    32    1
    30    32    33    1
    31    33    34    1
    32    34    35    1
    33    27    28    1
    34    28    29    1
    35     6     1    1
    36    19    13   ar
    37    29    24    1
    38     9     7    1
    39    35    30    1
@<TRIPOS>MOLECULE
*****
 35 39 0 0 0
SMALL
GASTEIGER

@<TRIPOS>ATOM
      1 C          60.6785   88.3301    9.6175 C.3     1  UNL1        0.1232
      2 C          59.8636   89.3427    8.8690 C.3     1  UNL1        0.0216
      3 C          59.4343   89.0656    7.4587 C.3     1  UNL1        0.0030
      4 C          59.8199   87.7759    6.7970 C.3     1  UNL1        0.0178
      5 C          60.6348   86.7632    7.5456 C.3     1  UNL1        0.0796
      6 N          61.0641   87.0403    8.9559 N.3     1  UNL1       -0.1546
      7 C          61.0204   85.4735    6.8839 C.3     1  UNL1        0.0164
      8 C          60.6335   84.1504    6.2926 C.3     1  UNL1        0.0014
      9 C          62.0752   84.5626    6.3293 C.3     1  UNL1        0.0014
     10 S          61.8791   86.0277    9.7045 S.O2    1  UNL1        0.0633
     11 O          60.6681   85.6422   10.5012 O.2     1  UNL1       -0.1528
     12 O          63.0901   86.4132    8.9078 O.2     1  UNL1       -0.1528
     13 C          62.6940   85.0150   10.4531 C.ar    1  UNL1        0.1223
     14 C          62.6609   84.9859   11.9525 C.ar    1  UNL1        0.0208
     15 C          63.4759   83.9732   12.7011 C.ar    1  UNL1        0.0128
     16 C          64.3238   82.9897   11.9504 C.ar    1  UNL1        0.0578
     17 CL         65.1387   81.9771   12.6990 Cl      1  UNL1       -0.0822
     18 C          64.3569   83.0188   10.4511 C.ar    1  UNL1        0.0128
     19 C          63.5420   84.0314    9.7024 C.ar    1  UNL1        0.0208
     20 C          61.1079   88.6072   11.0279 C.3     1  UNL1        0.2276
     21 O          61.3437   90.0190   11.4764 O.3     1  UNL1       -0.4330
     22 O          62.5473   91.1510    9.4714 O.2     1  UNL1       -0.2262
     23 C          62.5036   90.7963   10.9282 C.2     1  UNL1        0.4049
     24 N          63.6198   91.2188   11.8368 N.am    1  UNL1       -0.2459
     25 C          63.5761   90.8641   13.2936 C.3     1  UNL1        0.0981
     26 C          64.6922   91.2866   14.2022 C.3     1  UNL1        0.0376
     27 C          65.8522   92.0639   13.6541 C.3     1  UNL1        0.0609
     28 C          65.8959   92.4186   12.1973 C.3     1  UNL1        0.0376
     29 C          64.7796   91.9961   11.2886 C.3     1  UNL1        0.0981
     30 N          66.9683   92.4864   14.5627 N.3     1  UNL1       -0.2738
     31 C          67.3280   93.9376   14.6842 C.3     1  UNL1        0.0720
     32 C          68.4441   94.3601   15.5928 C.3     1  UNL1        0.0174
     33 C          69.2007   93.3315   16.3799 C.3     1  UNL1        0.0029
     34 C          68.8411   91.8803   16.2584 C.3     1  UNL1        0.0174
     35 C          67.7248   91.4578   15.3497 C.3     1  UNL1        0.0720
@<TRIPOS>BOND
     1    22    23    2
     2    23    21    1
     3    21    20    1
     4     1    20    1
     5     1     2    1
     6     2     3    1
     7     3     4    1
     8     4     5    1
     9     5     7    1
    10     7     8    1
    11     8     9    1
    12     5     6    1
    13     6    10    1
    14    10    11    2
    15    10    12    2
    16    10    13    1
    17    13    14   ar
    18    14    15   ar
    19    15    16   ar
    20    16    17    1
    21    16    18   ar
    22    18    19   ar
    23    23    24   am
    24    24    25    1
    25    25    26    1
    26    26    27    1
    27    27    30    1
    28    30    31    1
    29    31    32    1
    30    32    33    1
    31    33    34    1
    32    34    35    1
    33    27    28    1
    34    28    29    1
    35     6     1    1
    36    19    13   ar
    37    29    24    1
    38     9     7    1
    39    35    30    1
