@<TRIPOS>MOLECULE
*****
 29 33 0 0 0
SMALL
GASTEIGER

@<TRIPOS>ATOM
      1 N          64.6329   85.0344   15.5735 N.3     1  UNL1       -0.3199
      2 C          64.1576   85.9508   14.4854 C.3     1  UNL1        0.0841
      3 C          64.6148   87.3791   14.4546 C.3     1  UNL1        0.0368
      4 C          64.1395   88.2954   13.3663 C.3     1  UNL1        0.0892
      5 C          63.2070   87.7835   12.3088 C.3     1  UNL1        0.1584
      6 O          62.7497   86.3551   12.3395 O.3     1  UNL1       -0.3490
      7 C          63.2251   85.4388   13.4278 C.3     1  UNL1        0.1538
      8 H          65.2550   85.5448   16.2003 H       1  UNL1        0.1189
      9 H          65.1357   84.2487   15.1609 H       1  UNL1        0.1189
     10 N          64.5966   89.7237   13.3355 N.3     1  UNL1       -0.2627
     11 C          65.1460   90.4988   14.4963 C.3     1  UNL1        0.1206
     12 C          65.4736   91.8818   14.0167 C.ar    1  UNL1        0.0971
     13 N          66.0156   93.2157   14.4376 N.ar    1  UNL1       -0.1498
     14 N          66.0036   94.1196   13.2407 N.ar    1  UNL1       -0.1303
     15 N          66.4220   95.5484   13.0577 N.ar    1  UNL1       -0.1434
     16 C          66.2910   96.2020   11.7140 C.ar    1  UNL1        0.1428
     17 C          65.7416   95.4269   10.5533 C.ar    1  UNL1        0.1231
     18 N          65.3232   93.9981   10.7362 N.ar    1  UNL1       -0.2221
     19 C          65.4542   93.3445   12.0799 C.ar    1  UNL1        0.1822
     20 C          65.1267   91.9615   12.5595 C.ar    1  UNL1        0.0480
     21 C          64.5846   90.6276   12.1385 C.3     1  UNL1        0.1039
     22 C          62.7679   84.0105   13.4585 C.ar    1  UNL1        0.0355
     23 C          63.0577   83.1052   12.2982 C.ar    1  UNL1        0.0300
     24 C          62.6006   81.6769   12.3288 C.ar    1  UNL1        0.1400
     25 F          62.8904   80.7715   11.1685 F       1  UNL1       -0.2042
     26 C          61.8535   81.1539   13.5198 C.ar    1  UNL1        0.0319
     27 C          61.5637   82.0593   14.6801 C.ar    1  UNL1        0.0317
     28 C          62.0208   83.4876   14.6495 C.ar    1  UNL1        0.1386
     29 F          61.7310   84.3929   15.8098 F       1  UNL1       -0.2044
@<TRIPOS>BOND
     1     2     1    1
     2     2     3    1
     3     3     4    1
     4     4    10    1
     5    10    11    1
     6    11    12    1
     7    12    13   ar
     8    13    14   ar
     9    14    15   ar
    10    15    16   ar
    11    16    17   ar
    12    17    18   ar
    13    18    19   ar
    14    19    20   ar
    15    20    21    1
    16     4     5    1
    17     5     6    1
    18     6     7    1
    19     7    22    1
    20    22    23   ar
    21    23    24   ar
    22    24    25    1
    23    24    26   ar
    24    26    27   ar
    25    27    28   ar
    26    28    29    1
    27     7     2    1
    28    28    22   ar
    29    21    10    1
    30    20    12   ar
    31    19    14   ar
    32     1     8    1
    33     1     9    1
@<TRIPOS>MOLECULE
*****
 29 33 0 0 0
SMALL
GASTEIGER

@<TRIPOS>ATOM
      1 N          64.2528   83.2779   15.6782 N.3     1  UNL1       -0.3199
      2 C          63.7378   84.2088   14.6208 C.3     1  UNL1        0.0841
      3 C          64.1527   85.6503   14.6238 C.3     1  UNL1        0.0368
      4 C          63.6376   86.5812   13.5663 C.3     1  UNL1        0.0892
      5 C          62.7076   86.0706   12.5060 C.3     1  UNL1        0.1584
      6 O          62.2926   84.6291   12.5030 O.3     1  UNL1       -0.3490
      7 C          62.8077   83.6982   13.5604 C.3     1  UNL1        0.1538
      8 H          64.8674   83.7894   16.3115 H       1  UNL1        0.1189
      9 H          64.7732   82.5187   15.2386 H       1  UNL1        0.1189
     10 N          64.0526   88.0226   13.5692 N.3     1  UNL1       -0.2627
     11 C          63.5187   89.0956   12.6673 C.3     1  UNL1        0.1206
     12 C          64.2105   90.3803   13.0153 C.ar    1  UNL1        0.0971
     13 N          64.3080   91.8374   12.6729 N.ar    1  UNL1       -0.1498
     14 N          65.3298   92.4590   13.5783 N.ar    1  UNL1       -0.1303
     15 N          65.8429   93.8633   13.6980 N.ar    1  UNL1       -0.1434
     16 C          66.8900   94.1947   14.7196 C.ar    1  UNL1        0.1428
     17 C          67.4239   93.1216   15.6216 C.ar    1  UNL1        0.1231
     18 N          66.9108   91.7173   15.5019 N.ar    1  UNL1       -0.2221
     19 C          65.8637   91.3859   14.4803 C.ar    1  UNL1        0.1822
     20 C          65.1719   90.1013   14.1323 C.ar    1  UNL1        0.0480
     21 C          65.0744   88.6441   14.4747 C.3     1  UNL1        0.1039
     22 C          62.3927   82.2568   13.5575 C.ar    1  UNL1        0.0355
     23 C          61.0685   81.8564   14.1372 C.ar    1  UNL1        0.0300
     24 C          60.6534   80.4150   14.1342 C.ar    1  UNL1        0.1400
     25 F          59.3291   80.0146   14.7139 F       1  UNL1       -0.2042
     26 C          61.5626   79.3740   13.5516 C.ar    1  UNL1        0.0319
     27 C          62.8869   79.7743   12.9719 C.ar    1  UNL1        0.0317
     28 C          63.3019   81.2157   12.9748 C.ar    1  UNL1        0.1386
     29 F          64.6262   81.6161   12.3951 F       1  UNL1       -0.2044
@<TRIPOS>BOND
     1     2     1    1
     2     2     3    1
     3     3     4    1
     4     4    10    1
     5    10    11    1
     6    11    12    1
     7    12    13   ar
     8    13    14   ar
     9    14    15   ar
    10    15    16   ar
    11    16    17   ar
    12    17    18   ar
    13    18    19   ar
    14    19    20   ar
    15    20    21    1
    16     4     5    1
    17     5     6    1
    18     6     7    1
    19     7    22    1
    20    22    23   ar
    21    23    24   ar
    22    24    25    1
    23    24    26   ar
    24    26    27   ar
    25    27    28   ar
    26    28    29    1
    27     7     2    1
    28    28    22   ar
    29    21    10    1
    30    20    12   ar
    31    19    14   ar
    32     1     8    1
    33     1     9    1
@<TRIPOS>MOLECULE
*****
 29 33 0 0 0
SMALL
GASTEIGER

@<TRIPOS>ATOM
      1 N          59.2772   91.6059   -0.4317 N.3     1  UNL1       -0.3199
      2 C          58.8711   93.0445   -0.5556 C.3     1  UNL1        0.0841
      3 C          57.5543   93.4011   -1.1792 C.3     1  UNL1        0.0368
      4 C          57.1483   94.8398   -1.3031 C.3     1  UNL1        0.0892
      5 C          58.0590   95.9219   -0.8035 C.3     1  UNL1        0.1584
      6 O          59.3759   95.5653   -0.1799 O.3     1  UNL1       -0.3490
      7 C          59.7820   94.1266   -0.0560 C.3     1  UNL1        0.1538
      8 H          58.5448   91.0113   -0.8193 H       1  UNL1        0.1189
      9 H          59.4170   91.3757    0.5521 H       1  UNL1        0.1189
     10 N          55.8315   95.1964   -1.9267 N.3     1  UNL1       -0.2627
     11 C          54.5335   95.3847   -1.1989 C.3     1  UNL1        0.1206
     12 C          53.4813   95.7320   -2.2100 C.ar    1  UNL1        0.0971
     13 N          52.0288   96.0630   -2.3851 N.ar    1  UNL1       -0.1498
     14 N          51.7788   96.2941   -3.8460 N.ar    1  UNL1       -0.1303
     15 N          50.5370   96.6515   -4.6075 N.ar    1  UNL1       -0.1434
     16 C          50.5931   96.8207   -6.0968 C.ar    1  UNL1        0.1428
     17 C          51.8912   96.6325   -6.8246 C.ar    1  UNL1        0.1231
     18 N          53.1330   96.2750   -6.0631 N.ar    1  UNL1       -0.2221
     19 C          53.0768   96.1058   -4.5738 C.ar    1  UNL1        0.1822
     20 C          54.1290   95.7585   -3.5627 C.ar    1  UNL1        0.0480
     21 C          55.5816   95.4275   -3.3876 C.3     1  UNL1        0.1039
     22 C          61.0987   93.7701    0.5676 C.ar    1  UNL1        0.0355
     23 C          62.3783   94.0957   -0.1443 C.ar    1  UNL1        0.0300
     24 C          63.6952   93.7392    0.4792 C.ar    1  UNL1        0.1400
     25 F          64.9747   94.0648   -0.2327 F       1  UNL1       -0.2042
     26 C          63.7325   93.0570    1.8146 C.ar    1  UNL1        0.0319
     27 C          62.4529   92.7314    2.5265 C.ar    1  UNL1        0.0317
     28 C          61.1361   93.0879    1.9030 C.ar    1  UNL1        0.1386
     29 F          59.8565   92.7623    2.6148 F       1  UNL1       -0.2044
@<TRIPOS>BOND
     1     2     1    1
     2     2     3    1
     3     3     4    1
     4     4    10    1
     5    10    11    1
     6    11    12    1
     7    12    13   ar
     8    13    14   ar
     9    14    15   ar
    10    15    16   ar
    11    16    17   ar
    12    17    18   ar
    13    18    19   ar
    14    19    20   ar
    15    20    21    1
    16     4     5    1
    17     5     6    1
    18     6     7    1
    19     7    22    1
    20    22    23   ar
    21    23    24   ar
    22    24    25    1
    23    24    26   ar
    24    26    27   ar
    25    27    28   ar
    26    28    29    1
    27     7     2    1
    28    28    22   ar
    29    21    10    1
    30    20    12   ar
    31    19    14   ar
    32     1     8    1
    33     1     9    1
@<TRIPOS>MOLECULE
*****
 29 33 0 0 0
SMALL
GASTEIGER

@<TRIPOS>ATOM
      1 N          64.3668   83.5556   15.6834 N.3     1  UNL1       -0.3199
      2 C          63.8821   84.5405   14.6612 C.3     1  UNL1        0.0841
      3 C          64.3188   85.9737   14.7344 C.3     1  UNL1        0.0368
      4 C          63.8341   86.9586   13.7121 C.3     1  UNL1        0.0892
      5 C          62.9127   86.5103   12.6166 C.3     1  UNL1        0.1584
      6 O          62.4760   85.0771   12.5434 O.3     1  UNL1       -0.3490
      7 C          62.9607   84.0922   13.5657 C.3     1  UNL1        0.1538
      8 H          64.9793   84.0287   16.3478 H       1  UNL1        0.1189
      9 H          64.8823   82.8086   15.2181 H       1  UNL1        0.1189
     10 N          64.2708   88.3917   13.7853 N.3     1  UNL1       -0.2627
     11 C          64.6153   89.1457   15.0354 C.3     1  UNL1        0.1206
     12 C          64.9970   90.5425   14.6438 C.ar    1  UNL1        0.0971
     13 N          65.4458   91.8718   15.1744 N.ar    1  UNL1       -0.1498
     14 N          65.6147   92.8026   14.0103 N.ar    1  UNL1       -0.1303
     15 N          66.0376   94.2393   13.9271 N.ar    1  UNL1       -0.1434
     16 C          66.1160   94.9220   12.5938 C.ar    1  UNL1        0.1428
     17 C          65.7715   94.1679   11.3437 C.ar    1  UNL1        0.1231
     18 N          65.3486   92.7312   11.4269 N.ar    1  UNL1       -0.2221
     19 C          65.2702   92.0486   12.7602 C.ar    1  UNL1        0.1822
     20 C          64.8884   90.6518   13.1518 C.ar    1  UNL1        0.0480
     21 C          64.4396   89.3224   12.6211 C.3     1  UNL1        0.1039
     22 C          62.5240   82.6591   13.4925 C.ar    1  UNL1        0.0355
     23 C          61.2654   82.2225   14.1818 C.ar    1  UNL1        0.0300
     24 C          60.8286   80.7893   14.1086 C.ar    1  UNL1        0.1400
     25 F          59.5699   80.3527   14.7980 F       1  UNL1       -0.2042
     26 C          61.6505   79.7928   13.3461 C.ar    1  UNL1        0.0319
     27 C          62.9091   80.2295   12.6568 C.ar    1  UNL1        0.0317
     28 C          63.3459   81.6626   12.7300 C.ar    1  UNL1        0.1386
     29 F          64.6045   82.0992   12.0406 F       1  UNL1       -0.2044
@<TRIPOS>BOND
     1     2     1    1
     2     2     3    1
     3     3     4    1
     4     4    10    1
     5    10    11    1
     6    11    12    1
     7    12    13   ar
     8    13    14   ar
     9    14    15   ar
    10    15    16   ar
    11    16    17   ar
    12    17    18   ar
    13    18    19   ar
    14    19    20   ar
    15    20    21    1
    16     4     5    1
    17     5     6    1
    18     6     7    1
    19     7    22    1
    20    22    23   ar
    21    23    24   ar
    22    24    25    1
    23    24    26   ar
    24    26    27   ar
    25    27    28   ar
    26    28    29    1
    27     7     2    1
    28    28    22   ar
    29    21    10    1
    30    20    12   ar
    31    19    14   ar
    32     1     8    1
    33     1     9    1
@<TRIPOS>MOLECULE
*****
 29 33 0 0 0
SMALL
GASTEIGER

@<TRIPOS>ATOM
      1 N          69.9613   77.7417   11.5797 N.3     1  UNL1       -0.3199
      2 C          71.0346   77.1728   12.4595 C.3     1  UNL1        0.0841
      3 C          70.7353   75.9996   13.3449 C.3     1  UNL1        0.0368
      4 C          71.8087   75.4308   14.2248 C.3     1  UNL1        0.0892
      5 C          73.1816   76.0351   14.2192 C.3     1  UNL1        0.1584
      6 O          73.4810   77.2084   13.3338 O.3     1  UNL1       -0.3490
      7 C          72.4075   77.7773   12.4539 C.3     1  UNL1        0.1538
      8 H          69.0990   77.2127   11.7100 H       1  UNL1        0.1189
      9 H          70.2534   77.6808   10.6043 H       1  UNL1        0.1189
     10 N          71.5094   74.2576   15.1102 N.3     1  UNL1       -0.2627
     11 C          70.6509   74.2775   16.3400 C.3     1  UNL1        0.1206
     12 C          70.6269   72.8906   16.9111 C.ar    1  UNL1        0.0971
     13 N          70.0815   72.0458   18.0241 N.ar    1  UNL1       -0.1498
     14 N          70.5881   70.6467   17.8351 N.ar    1  UNL1       -0.1303
     15 N          70.3786   69.3882   18.6240 N.ar    1  UNL1       -0.1434
     16 C          71.0276   68.1098   18.1830 C.ar    1  UNL1        0.1428
     17 C          71.8861   68.0899   16.9531 C.ar    1  UNL1        0.1231
     18 N          72.0956   69.3484   16.1642 N.ar    1  UNL1       -0.2221
     19 C          71.4466   70.6267   16.6052 C.ar    1  UNL1        0.1822
     20 C          71.4706   72.0136   16.0342 C.ar    1  UNL1        0.0480
     21 C          72.0160   72.8584   14.9211 C.3     1  UNL1        0.1039
     22 C          72.7069   78.9504   11.5686 C.ar    1  UNL1        0.0355
     23 C          72.9716   78.7390   10.1073 C.ar    1  UNL1        0.0300
     24 C          73.2711   79.9121    9.2219 C.ar    1  UNL1        0.1400
     25 F          73.5358   79.7007    7.7606 F       1  UNL1       -0.2042
     26 C          73.3058   81.2968    9.7977 C.ar    1  UNL1        0.0319
     27 C          73.0411   81.5082   11.2590 C.ar    1  UNL1        0.0317
     28 C          72.7417   80.3350   12.1444 C.ar    1  UNL1        0.1386
     29 F          72.4770   80.5465   13.6057 F       1  UNL1       -0.2044
@<TRIPOS>BOND
     1     2     1    1
     2     2     3    1
     3     3     4    1
     4     4    10    1
     5    10    11    1
     6    11    12    1
     7    12    13   ar
     8    13    14   ar
     9    14    15   ar
    10    15    16   ar
    11    16    17   ar
    12    17    18   ar
    13    18    19   ar
    14    19    20   ar
    15    20    21    1
    16     4     5    1
    17     5     6    1
    18     6     7    1
    19     7    22    1
    20    22    23   ar
    21    23    24   ar
    22    24    25    1
    23    24    26   ar
    24    26    27   ar
    25    27    28   ar
    26    28    29    1
    27     7     2    1
    28    28    22   ar
    29    21    10    1
    30    20    12   ar
    31    19    14   ar
    32     1     8    1
    33     1     9    1
@<TRIPOS>MOLECULE
*****
 29 33 0 0 0
SMALL
GASTEIGER

@<TRIPOS>ATOM
      1 N          63.1147   89.2771   12.4512 N.3     1  UNL1       -0.3199
      2 C          63.6139   88.1681   13.3291 C.3     1  UNL1        0.0841
      3 C          63.3281   86.7402   12.9694 C.3     1  UNL1        0.0368
      4 C          63.8274   85.6312   13.8475 C.3     1  UNL1        0.0892
      5 C          64.6124   85.9502   15.0852 C.3     1  UNL1        0.1584
      6 O          64.8982   87.3781   15.4450 O.3     1  UNL1       -0.3490
      7 C          64.3989   88.4871   14.5669 C.3     1  UNL1        0.1538
      8 H          62.6052   88.8819   11.6609 H       1  UNL1        0.1189
      9 H          63.9061   89.8213   12.1077 H       1  UNL1        0.1189
     10 N          63.5416   84.2033   13.4878 N.3     1  UNL1       -0.2627
     11 C          63.1574   83.1132   14.4438 C.3     1  UNL1        0.1206
     12 C          62.9682   81.8510   13.6557 C.ar    1  UNL1        0.0971
     13 N          62.6138   80.3971   13.7594 N.ar    1  UNL1       -0.1498
     14 N          62.6622   79.8086   12.3805 N.ar    1  UNL1       -0.1303
     15 N          62.4060   78.4210   11.8720 N.ar    1  UNL1       -0.1434
     16 C          62.5340   78.1235   10.4074 C.ar    1  UNL1        0.1428
     17 C          62.9183   79.2136    9.4514 C.ar    1  UNL1        0.1231
     18 N          63.1745   80.6013    9.9600 N.ar    1  UNL1       -0.2221
     19 C          63.0465   80.8988   11.4245 C.ar    1  UNL1        0.1822
     20 C          63.2356   82.1610   12.2126 C.ar    1  UNL1        0.0480
     21 C          63.5900   83.6149   12.1088 C.3     1  UNL1        0.1039
     22 C          64.6847   89.9150   14.9267 C.ar    1  UNL1        0.0355
     23 C          65.7301   90.6833   14.1738 C.ar    1  UNL1        0.0300
     24 C          66.0160   92.1111   14.5335 C.ar    1  UNL1        0.1400
     25 F          67.0614   92.8794   13.7806 F       1  UNL1       -0.2042
     26 C          65.2564   92.7707   15.6461 C.ar    1  UNL1        0.0319
     27 C          64.2110   92.0024   16.3990 C.ar    1  UNL1        0.0317
     28 C          63.9251   90.5746   16.0393 C.ar    1  UNL1        0.1386
     29 F          62.8797   89.8063   16.7922 F       1  UNL1       -0.2044
@<TRIPOS>BOND
     1     2     1    1
     2     2     3    1
     3     3     4    1
     4     4    10    1
     5    10    11    1
     6    11    12    1
     7    12    13   ar
     8    13    14   ar
     9    14    15   ar
    10    15    16   ar
    11    16    17   ar
    12    17    18   ar
    13    18    19   ar
    14    19    20   ar
    15    20    21    1
    16     4     5    1
    17     5     6    1
    18     6     7    1
    19     7    22    1
    20    22    23   ar
    21    23    24   ar
    22    24    25    1
    23    24    26   ar
    24    26    27   ar
    25    27    28   ar
    26    28    29    1
    27     7     2    1
    28    28    22   ar
    29    21    10    1
    30    20    12   ar
    31    19    14   ar
    32     1     8    1
    33     1     9    1
@<TRIPOS>MOLECULE
*****
 29 33 0 0 0
SMALL
GASTEIGER

@<TRIPOS>ATOM
      1 N          61.6912   92.8662   -2.2373 N.3     1  UNL1       -0.3199
      2 C          60.6211   93.7060   -1.6052 C.3     1  UNL1        0.0841
      3 C          59.3538   93.9945   -2.3541 C.3     1  UNL1        0.0368
      4 C          58.2837   94.8343   -1.7219 C.3     1  UNL1        0.0892
      5 C          58.4809   95.3856   -0.3409 C.3     1  UNL1        0.1584
      6 O          59.7482   95.0971    0.4080 O.3     1  UNL1       -0.3490
      7 C          60.8183   94.2573   -0.2242 C.3     1  UNL1        0.1538
      8 H          61.3917   92.5785   -3.1689 H       1  UNL1        0.1189
      9 H          61.8580   92.0396   -1.6634 H       1  UNL1        0.1189
     10 N          57.0164   95.1228   -2.4707 N.3     1  UNL1       -0.2627
     11 C          56.8533   95.1202   -3.9618 C.3     1  UNL1        0.1206
     12 C          55.4258   95.4604   -4.2725 C.ar    1  UNL1        0.0971
     13 N          54.4427   95.6690   -5.3860 N.ar    1  UNL1       -0.1498
     14 N          53.1160   96.0107   -4.7752 N.ar    1  UNL1       -0.1303
     15 N          51.7805   96.3199   -5.3841 N.ar    1  UNL1       -0.1434
     16 C          50.6081   96.6316   -4.5019 C.ar    1  UNL1        0.1428
     17 C          50.7712   96.6342   -3.0108 C.ar    1  UNL1        0.1231
     18 N          52.1067   96.3250   -2.4019 N.ar    1  UNL1       -0.2221
     19 C          53.2791   96.0133   -3.2841 C.ar    1  UNL1        0.1822
     20 C          54.7066   95.6731   -2.9734 C.ar    1  UNL1        0.0480
     21 C          55.6897   95.4645   -1.8598 C.3     1  UNL1        0.1039
     22 C          62.0856   93.9688    0.5247 C.ar    1  UNL1        0.0355
     23 C          62.1633   92.7814    1.4379 C.ar    1  UNL1        0.0300
     24 C          63.4305   92.4929    2.1868 C.ar    1  UNL1        0.1400
     25 F          63.5082   91.3055    3.1001 F       1  UNL1       -0.2042
     26 C          64.6200   93.3918    2.0225 C.ar    1  UNL1        0.0319
     27 C          64.5423   94.5792    1.1092 C.ar    1  UNL1        0.0317
     28 C          63.2751   94.8677    0.3603 C.ar    1  UNL1        0.1386
     29 F          63.1973   96.0552   -0.5529 F       1  UNL1       -0.2044
@<TRIPOS>BOND
     1     2     1    1
     2     2     3    1
     3     3     4    1
     4     4    10    1
     5    10    11    1
     6    11    12    1
     7    12    13   ar
     8    13    14   ar
     9    14    15   ar
    10    15    16   ar
    11    16    17   ar
    12    17    18   ar
    13    18    19   ar
    14    19    20   ar
    15    20    21    1
    16     4     5    1
    17     5     6    1
    18     6     7    1
    19     7    22    1
    20    22    23   ar
    21    23    24   ar
    22    24    25    1
    23    24    26   ar
    24    26    27   ar
    25    27    28   ar
    26    28    29    1
    27     7     2    1
    28    28    22   ar
    29    21    10    1
    30    20    12   ar
    31    19    14   ar
    32     1     8    1
    33     1     9    1
@<TRIPOS>MOLECULE
*****
 29 33 0 0 0
SMALL
GASTEIGER

@<TRIPOS>ATOM
      1 N          61.9492   86.2207   11.7005 N.3     1  UNL1       -0.3199
      2 C          62.3535   87.6312   11.3891 C.3     1  UNL1        0.0841
      3 C          63.1695   88.4127   12.3757 C.3     1  UNL1        0.0368
      4 C          63.5737   89.8233   12.0642 C.3     1  UNL1        0.0892
      5 C          63.1620   90.4522   10.7662 C.3     1  UNL1        0.1584
      6 O          62.3460   89.6707    9.7795 O.3     1  UNL1       -0.3490
      7 C          61.9418   88.2601   10.0910 C.3     1  UNL1        0.1538
      8 H          62.3120   85.9574   12.6167 H       1  UNL1        0.1189
      9 H          62.3292   85.5937   10.9914 H       1  UNL1        0.1189
     10 N          64.3897   90.6049   13.0508 N.3     1  UNL1       -0.2627
     11 C          63.9228   91.0947   14.3895 C.3     1  UNL1        0.1206
     12 C          65.0604   91.8264   15.0379 C.ar    1  UNL1        0.0971
     13 N          65.4750   92.5813   16.2659 N.ar    1  UNL1       -0.1498
     14 N          66.9012   93.0104   16.0870 N.ar    1  UNL1       -0.1303
     15 N          67.8349   93.7837   16.9701 N.ar    1  UNL1       -0.1434
     16 C          69.2356   94.0673   16.5145 C.ar    1  UNL1        0.1428
     17 C          69.7025   93.5774   15.1758 C.ar    1  UNL1        0.1231
     18 N          68.7687   92.8041   14.2927 N.ar    1  UNL1       -0.2221
     19 C          67.3681   92.5205   14.7483 C.ar    1  UNL1        0.1822
     20 C          66.2304   91.7888   14.0999 C.ar    1  UNL1        0.0480
     21 C          65.8159   91.0338   12.8718 C.3     1  UNL1        0.1039
     22 C          61.1258   87.4786    9.1044 C.ar    1  UNL1        0.0355
     23 C          61.7373   86.3169    8.3788 C.ar    1  UNL1        0.0300
     24 C          60.9214   85.5353    7.3921 C.ar    1  UNL1        0.1400
     25 F          61.5328   84.3736    6.6665 F       1  UNL1       -0.2042
     26 C          59.4940   85.9155    7.1312 C.ar    1  UNL1        0.0319
     27 C          58.8826   87.0772    7.8569 C.ar    1  UNL1        0.0317
     28 C          59.6985   87.8588    8.8435 C.ar    1  UNL1        0.1386
     29 F          59.0870   89.0205    9.5692 F       1  UNL1       -0.2044
@<TRIPOS>BOND
     1     2     1    1
     2     2     3    1
     3     3     4    1
     4     4    10    1
     5    10    11    1
     6    11    12    1
     7    12    13   ar
     8    13    14   ar
     9    14    15   ar
    10    15    16   ar
    11    16    17   ar
    12    17    18   ar
    13    18    19   ar
    14    19    20   ar
    15    20    21    1
    16     4     5    1
    17     5     6    1
    18     6     7    1
    19     7    22    1
    20    22    23   ar
    21    23    24   ar
    22    24    25    1
    23    24    26   ar
    24    26    27   ar
    25    27    28   ar
    26    28    29    1
    27     7     2    1
    28    28    22   ar
    29    21    10    1
    30    20    12   ar
    31    19    14   ar
    32     1     8    1
    33     1     9    1
@<TRIPOS>MOLECULE
*****
 29 33 0 0 0
SMALL
GASTEIGER

@<TRIPOS>ATOM
      1 N          61.0099   92.2923    0.7079 N.3     1  UNL1       -0.3199
      2 C          60.7060   93.0919   -0.5242 C.3     1  UNL1        0.0841
      3 C          59.6720   92.6072   -1.4969 C.3     1  UNL1        0.0368
      4 C          59.3682   93.4069   -2.7290 C.3     1  UNL1        0.0892
      5 C          60.0983   94.6913   -2.9885 C.3     1  UNL1        0.1584
      6 O          61.1323   95.1760   -2.0159 O.3     1  UNL1       -0.3490
      7 C          61.4362   94.3763   -0.7837 C.3     1  UNL1        0.1538
      8 H          60.4258   91.4562    0.7232 H       1  UNL1        0.1189
      9 H          60.8176   92.8566    1.5354 H       1  UNL1        0.1189
     10 N          58.3342   92.9223   -3.7017 N.3     1  UNL1       -0.2627
     11 C          58.0775   93.4842   -5.0685 C.3     1  UNL1        0.1206
     12 C          56.9601   92.6998   -5.6898 C.ar    1  UNL1        0.0971
     13 N          56.1108   92.5623   -6.9185 N.ar    1  UNL1       -0.1498
     14 N          55.1520   91.4306   -6.6951 N.ar    1  UNL1       -0.1303
     15 N          54.0783   90.8392   -7.5596 N.ar    1  UNL1       -0.1434
     16 C          53.2614   89.6858   -7.0573 C.ar    1  UNL1        0.1428
     17 C          53.5181   89.1239   -5.6905 C.ar    1  UNL1        0.1231
     18 N          54.5917   89.7153   -4.8259 N.ar    1  UNL1       -0.2221
     19 C          55.4087   90.8686   -5.3282 C.ar    1  UNL1        0.1822
     20 C          56.5261   91.6531   -4.7070 C.ar    1  UNL1        0.0480
     21 C          57.3754   91.7905   -3.4781 C.3     1  UNL1        0.1039
     22 C          62.4701   94.8610    0.1888 C.ar    1  UNL1        0.0355
     23 C          63.7593   94.1110    0.3487 C.ar    1  UNL1        0.0300
     24 C          64.7933   94.5956    1.3213 C.ar    1  UNL1        0.1400
     25 F          66.0825   93.8456    1.4811 F       1  UNL1       -0.2042
     26 C          64.5381   95.8303    2.1340 C.ar    1  UNL1        0.0319
     27 C          63.2489   96.5802    1.9741 C.ar    1  UNL1        0.0317
     28 C          62.2149   96.0956    1.0016 C.ar    1  UNL1        0.1386
     29 F          60.9257   96.8456    0.8417 F       1  UNL1       -0.2044
@<TRIPOS>BOND
     1     2     1    1
     2     2     3    1
     3     3     4    1
     4     4    10    1
     5    10    11    1
     6    11    12    1
     7    12    13   ar
     8    13    14   ar
     9    14    15   ar
    10    15    16   ar
    11    16    17   ar
    12    17    18   ar
    13    18    19   ar
    14    19    20   ar
    15    20    21    1
    16     4     5    1
    17     5     6    1
    18     6     7    1
    19     7    22    1
    20    22    23   ar
    21    23    24   ar
    22    24    25    1
    23    24    26   ar
    24    26    27   ar
    25    27    28   ar
    26    28    29    1
    27     7     2    1
    28    28    22   ar
    29    21    10    1
    30    20    12   ar
    31    19    14   ar
    32     1     8    1
    33     1     9    1
