@<TRIPOS>MOLECULE
*****
 67 71 0 0 0
SMALL
GASTEIGER

@<TRIPOS>ATOM
      1 C          62.6879   83.7588   15.1306 C.3     1  UNL1        0.2087
      2 O          62.9116   84.7345   16.2478 O.3     1  UNL1       -0.4464
      3 C          63.1043   86.1046   16.8271 C.2     1  UNL1        0.3537
      4 O          63.2596   85.8281   18.2933 O.2     1  UNL1       -0.2467
      5 C          63.2279   87.5977   16.7541 C.3     1  UNL1        0.2718
      6 C          63.3573   87.1055   18.1651 C.3     1  UNL1        0.0548
      7 F          63.4461   88.7312   17.7121 F       1  UNL1       -0.2210
      8 C          63.2579   88.9182   16.0430 C.2     1  UNL1        0.1924
      9 O          63.4816   89.8938   17.1602 O.2     1  UNL1       -0.2926
     10 C          63.1884   89.8044   14.8348 C.3     1  UNL1        0.0904
     11 C          63.3812   91.1744   15.4143 C.3     1  UNL1        0.0105
     12 C          63.0331   90.0808   13.3687 C.3     1  UNL1        0.1494
     13 C          62.8228   89.6928   11.9351 C.3     1  UNL1        0.1185
     14 C          62.9730   91.1777   12.0845 C.3     1  UNL1        0.0322
     15 C          62.5991   88.7171   10.8180 C.3     1  UNL1        0.0353
     16 C          62.4063   87.3469   10.2386 C.3     1  UNL1        0.0419
     17 C          62.2510   87.6235    8.7724 C.3     1  UNL1        0.0061
     18 C          62.2827   85.8539   10.3116 C.2     1  UNL1        0.0778
     19 N          62.0724   85.4658    8.8780 N.2     1  UNL1       -0.0913
     20 C          62.2527   84.5334   11.0227 C.3     1  UNL1        0.0832
     21 C          62.0290   83.5578    9.9055 C.3     1  UNL1        0.0099
     22 C          62.3222   83.6472   12.2309 C.3     1  UNL1        0.2172
     23 O          62.1199   82.3361   11.5308 O.3     1  UNL1       -0.4177
     24 C          62.1502   81.2494   12.5643 C.2     1  UNL1        0.5118
     25 O          61.9879   79.7810   12.3046 O.2     1  UNL1       -0.2028
     26 O          62.3712   81.8888   13.9031 O.3     1  UNL1       -0.4181
     27 C          62.4775   83.3708   13.6970 C.3     1  UNL1        0.2124
     28 C          62.5566   82.5395   14.9431 C.3     1  UNL1        0.0514
     29 C          63.5827   81.3366   15.4169 C.3     1  UNL1        0.0040
     30 C          62.6578   82.4384   15.8417 C.3     1  UNL1        0.0474
     31 O          62.7222   90.3898   10.6107 O.3     1  UNL1       -0.3535
     32 C          61.3928   90.5124    9.9268 C.3     1  UNL1        0.1740
     33 O          63.1567   91.5739   13.2957 O.3     1  UNL1       -0.3283
     34 C          64.5131   92.2141   13.2769 C.3     1  UNL1        0.2643
     35 O          65.2874   92.3684   14.5523 O.3     1  UNL1       -0.3311
     36 C          66.6438   93.0086   14.5335 C.3     1  UNL1        0.1194
     37 C          67.4180   93.1628   15.8090 C.3     1  UNL1        0.0322
     38 C          67.2259   93.4944   13.2393 C.3     1  UNL1        0.0482
     39 C          66.4517   93.3402   11.9639 C.3     1  UNL1        0.0921
     40 C          65.0953   92.7000   11.9826 C.3     1  UNL1        0.1815
     41 O          64.3210   92.5457   10.7073 O.3     1  UNL1       -0.3783
     42 H          63.4718   92.1161   10.8945 H       1  UNL1        0.2106
     43 N          67.0338   93.8260   10.6697 N.3     1  UNL1       -0.2692
     44 C          67.7483   92.8687    9.7624 C.3     1  UNL1        0.0897
     45 C          66.9014   95.2691   10.2826 C.3     1  UNL1        0.0897
     46 O          62.0355   86.5214    7.8129 O.2     1  UNL1       -0.3730
     47 C          60.7439   87.2090    7.4829 C.3     1  UNL1        0.2649
     48 C          60.6697   88.1439    6.3122 C.2     1  UNL1        0.0236
     49 C          60.3030   89.5830    6.5238 C.2     1  UNL1       -0.0008
     50 C          60.2288   90.5179    5.3531 C.ar    1  UNL1       -0.0000
     51 C          58.9088   91.0975    4.9387 C.ar    1  UNL1        0.0015
     52 C          58.8346   92.0324    3.7680 C.ar    1  UNL1        0.0173
     53 C          60.0804   92.3877    3.0117 C.ar    1  UNL1        0.0630
     54 C          61.4003   91.8081    3.4262 C.ar    1  UNL1        0.0549
     55 C          61.4745   90.8732    4.5969 C.ar    1  UNL1        0.0046
     56 C          62.6461   92.1634    2.6701 C.ar    1  UNL1        0.2028
     57 O          63.9661   91.5839    3.0845 O.2     1  UNL1       -0.2863
     58 C          62.5719   93.0984    1.4994 C.ar    1  UNL1        0.1092
     59 C          61.2520   93.6779    1.0849 C.ar    1  UNL1        0.0836
     60 N          60.0061   93.3226    1.8411 N.ar    1  UNL1       -0.3258
     61 C          63.8176   93.4536    0.7432 C.2     1  UNL1        0.2473
     62 N          65.1174   93.6173    1.4738 N.am    1  UNL1       -0.3252
     63 O          63.7637   93.6453   -0.7436 O.2     1  UNL1       -0.2702
     64 H          65.1529   93.4915    2.4496 H       1  UNL1        0.1453
     65 H          65.9351   93.8505    0.9775 H       1  UNL1        0.1453
     66 C          58.6862   93.9022    1.4267 C.3     1  UNL1        0.1061
     67 C          58.3810   94.1082   -0.0274 C.3     1  UNL1        0.0265
@<TRIPOS>BOND
     1    29    30    1
     2     1    30    1
     3     1     2    1
     4     2     3    1
     5     3     4    2
     6     3     5    1
     7     5     6    1
     8     5     7    1
     9     5     8    1
    10     8     9    2
    11     8    10    1
    12    10    11    1
    13    10    12    1
    14    12    33    1
    15    34    33    1
    16    34    35    1
    17    35    36    1
    18    36    37    1
    19    36    38    1
    20    38    39    1
    21    39    43    1
    22    43    44    1
    23    43    45    1
    24    39    40    1
    25    40    41    1
    26    12    13    1
    27    13    14    1
    28    13    31    1
    29    31    32    1
    30    13    15    1
    31    15    16    1
    32    16    17    1
    33    16    18    1
    34    18    19    2
    35    19    46    1
    36    46    47    1
    37    47    48    1
    38    48    49    2
    39    49    50    1
    40    50    51   ar
    41    51    52   ar
    42    52    53   ar
    43    53    54   ar
    44    54    55   ar
    45    54    56   ar
    46    56    57    2
    47    56    58   ar
    48    58    61    1
    49    61    62   am
    50    61    63    2
    51    58    59   ar
    52    59    60   ar
    53    60    66    1
    54    66    67    1
    55    18    20    1
    56    20    21    1
    57    20    22    1
    58    22    23    1
    59    23    24    1
    60    24    25    2
    61    24    26    1
    62    26    27    1
    63    27    28    1
    64    27     1    1
    65    40    34    1
    66    55    50   ar
    67    27    22    1
    68    60    53   ar
    69    41    42    1
    70    62    64    1
    71    62    65    1
@<TRIPOS>MOLECULE
*****
 67 71 0 0 0
SMALL
GASTEIGER

@<TRIPOS>ATOM
      1 C          62.6924   83.4885   14.8391 C.3     1  UNL1        0.2087
      2 O          62.9161   84.3365   16.0560 O.3     1  UNL1       -0.4464
      3 C          63.1047   85.6356   16.7820 C.2     1  UNL1        0.3537
      4 O          63.2676   85.2002   18.2082 O.2     1  UNL1       -0.2467
      5 C          63.2207   87.1282   16.8733 C.3     1  UNL1        0.2718
      6 C          63.3586   86.4845   18.2210 C.3     1  UNL1        0.0548
      7 F          63.4375   88.1505   17.9494 F       1  UNL1       -0.2210
      8 C          63.2412   88.5191   16.3118 C.2     1  UNL1        0.1924
      9 O          63.4650   89.3670   17.5288 O.2     1  UNL1       -0.2926
     10 C          63.1622   89.5325   15.2087 C.3     1  UNL1        0.0904
     11 C          63.3507   90.8314   15.9348 C.3     1  UNL1        0.0105
     12 C          62.9992   89.9677   13.7825 C.3     1  UNL1        0.1494
     13 C          62.7846   89.7388   12.3158 C.3     1  UNL1        0.1185
     14 C          62.9282   91.1990   12.6272 C.3     1  UNL1        0.0322
     15 C          62.5609   88.8907   11.0989 C.3     1  UNL1        0.0353
     16 C          62.3723   87.5917   10.3729 C.3     1  UNL1        0.0419
     17 C          62.2094   88.0271    8.9467 C.3     1  UNL1        0.0061
     18 C          62.2563   86.0991   10.2815 C.2     1  UNL1        0.0778
     19 N          62.0417   85.8700    8.8148 N.2     1  UNL1       -0.0913
     20 C          62.2358   84.7082   10.8431 C.3     1  UNL1        0.0832
     21 C          62.0121   83.8603    9.6261 C.3     1  UNL1        0.0099
     22 C          62.3148   83.6948   11.9461 C.3     1  UNL1        0.2172
     23 O          62.1159   82.4677   11.1068 O.3     1  UNL1       -0.4177
     24 C          62.1560   81.2740   12.0142 C.2     1  UNL1        0.5118
     25 O          61.9998   79.8422   11.5951 O.2     1  UNL1       -0.2028
     26 O          62.3796   81.7633   13.4144 O.3     1  UNL1       -0.4181
     27 C          62.4778   83.2595   13.3723 C.3     1  UNL1        0.2124
     28 C          62.5663   82.2966   14.5190 C.3     1  UNL1        0.0514
     29 C          63.5274   81.0289   14.7880 C.3     1  UNL1        0.0040
     30 C          62.6719   82.0978   15.4006 C.3     1  UNL1        0.0474
     31 O          62.6749   90.5767   11.0765 O.3     1  UNL1       -0.3535
     32 C          61.3321   90.8269   10.4568 C.3     1  UNL1        0.1740
     33 O          63.1152   91.4605   13.8739 O.3     1  UNL1       -0.3283
     34 C          64.3416   92.1506   13.3544 C.3     1  UNL1        0.2643
     35 O          64.3266   92.7840   11.9948 O.3     1  UNL1       -0.3311
     36 C          65.5530   93.4741   11.4753 C.3     1  UNL1        0.1194
     37 C          65.5379   94.1075   10.1157 C.3     1  UNL1        0.0322
     38 C          66.7943   93.5306   12.3155 C.3     1  UNL1        0.0482
     39 C          66.8093   92.8972   13.6751 C.3     1  UNL1        0.0921
     40 C          65.5830   92.2071   14.1946 C.3     1  UNL1        0.1815
     41 O          65.5980   91.5737   15.5541 O.3     1  UNL1       -0.3783
     42 H          64.7325   91.1743   15.7343 H       1  UNL1        0.2106
     43 N          68.0506   92.9538   14.5152 N.3     1  UNL1       -0.2692
     44 C          68.0890   93.8200   15.7393 C.3     1  UNL1        0.0897
     45 C          69.2537   92.1442   14.1314 C.3     1  UNL1        0.0897
     46 O          61.9951   87.0362    7.8725 O.2     1  UNL1       -0.3730
     47 C          60.6735   87.5997    7.4413 C.3     1  UNL1        0.2649
     48 C          60.5920   88.4753    6.2261 C.2     1  UNL1        0.0236
     49 C          60.4307   89.9586    6.3800 C.2     1  UNL1       -0.0008
     50 C          60.3491   90.8342    5.1648 C.ar    1  UNL1       -0.0000
     51 C          59.0354   91.4343    4.7596 C.ar    1  UNL1        0.0015
     52 C          58.9539   92.3099    3.5444 C.ar    1  UNL1        0.0173
     53 C          60.1861   92.5854    2.7344 C.ar    1  UNL1        0.0630
     54 C          61.4997   91.9853    3.1397 C.ar    1  UNL1        0.0549
     55 C          61.5812   91.1097    4.3549 C.ar    1  UNL1        0.0046
     56 C          62.7318   92.2608    2.3298 C.ar    1  UNL1        0.2028
     57 O          64.0455   91.6607    2.7350 O.2     1  UNL1       -0.2863
     58 C          62.6503   93.1364    1.1146 C.ar    1  UNL1        0.1092
     59 C          61.3367   93.7365    0.7093 C.ar    1  UNL1        0.0836
     60 N          60.1045   93.4610    1.5193 N.ar    1  UNL1       -0.3258
     61 C          63.8824   93.4119    0.3047 C.2     1  UNL1        0.2473
     62 N          65.2209   93.4867    0.9775 N.am    1  UNL1       -0.3252
     63 O          63.7761   93.6126   -1.1781 O.2     1  UNL1       -0.2702
     64 H          65.2908   93.3549    1.9507 H       1  UNL1        0.1453
     65 H          66.0297   93.6675    0.4460 H       1  UNL1        0.1453
     66 C          58.7909   94.0611    1.1140 C.3     1  UNL1        0.1061
     67 C          58.5558   94.4571   -0.3136 C.3     1  UNL1        0.0265
@<TRIPOS>BOND
     1    29    30    1
     2     1    30    1
     3     1     2    1
     4     2     3    1
     5     3     4    2
     6     3     5    1
     7     5     6    1
     8     5     7    1
     9     5     8    1
    10     8     9    2
    11     8    10    1
    12    10    11    1
    13    10    12    1
    14    12    33    1
    15    34    33    1
    16    34    35    1
    17    35    36    1
    18    36    37    1
    19    36    38    1
    20    38    39    1
    21    39    43    1
    22    43    44    1
    23    43    45    1
    24    39    40    1
    25    40    41    1
    26    12    13    1
    27    13    14    1
    28    13    31    1
    29    31    32    1
    30    13    15    1
    31    15    16    1
    32    16    17    1
    33    16    18    1
    34    18    19    2
    35    19    46    1
    36    46    47    1
    37    47    48    1
    38    48    49    2
    39    49    50    1
    40    50    51   ar
    41    51    52   ar
    42    52    53   ar
    43    53    54   ar
    44    54    55   ar
    45    54    56   ar
    46    56    57    2
    47    56    58   ar
    48    58    61    1
    49    61    62   am
    50    61    63    2
    51    58    59   ar
    52    59    60   ar
    53    60    66    1
    54    66    67    1
    55    18    20    1
    56    20    21    1
    57    20    22    1
    58    22    23    1
    59    23    24    1
    60    24    25    2
    61    24    26    1
    62    26    27    1
    63    27    28    1
    64    27     1    1
    65    40    34    1
    66    55    50   ar
    67    27    22    1
    68    60    53   ar
    69    41    42    1
    70    62    64    1
    71    62    65    1
