@<TRIPOS>MOLECULE
*****
 35 38 0 0 0
SMALL
GASTEIGER

@<TRIPOS>ATOM
      1 C          65.8762   93.0841   12.7625 C.ar    1  UNL1        0.0930
      2 C          66.4103   93.7496   13.9961 C.ar    1  UNL1        0.1067
      3 N          66.0247   92.9113   15.1788 N.ar    1  UNL1       -0.2252
      4 C          65.2522   91.7279   14.6761 C.ar    1  UNL1        0.1586
      5 N          64.6206   90.5668   15.3852 N.ar    1  UNL1       -0.3349
      6 C          63.8972   89.5125   14.6010 C.ar    1  UNL1        0.0945
      7 C          63.8054   89.6193   13.1076 C.ar    1  UNL1        0.1176
      8 N          64.4370   90.7804   12.3984 N.ar    1  UNL1       -0.2390
      9 C          65.1605   91.8346   13.1827 C.ar    1  UNL1        0.1210
     10 H          64.6809   90.4967   16.3653 H       1  UNL1        0.1675
     11 C          63.0819   88.5649   12.3233 C.ar    1  UNL1        0.1213
     12 N          63.2110   87.0823   12.5111 N.ar    1  UNL1       -0.1677
     13 N          62.3112   86.4092   11.5175 N.ar    1  UNL1       -0.2507
     14 C          61.6260   87.4758   10.7157 C.ar    1  UNL1        0.0816
     15 C          60.6298   87.4059    9.5964 C.ar    1  UNL1        0.0484
     16 C          60.1100   88.6683    8.9752 C.ar    1  UNL1        0.1416
     17 F          59.1138   88.5985    7.8558 F       1  UNL1       -0.2041
     18 C          60.5863   90.0007    9.4732 C.ar    1  UNL1        0.0298
     19 C          61.5824   90.0706   10.5925 C.ar    1  UNL1        0.0054
     20 C          62.1023   88.8081   11.2137 C.ar    1  UNL1        0.0383
     21 C          62.1287   84.9293   11.3544 C.3     1  UNL1        0.1293
     22 C          63.1162   83.9800   11.9656 C.3     1  UNL1        0.0516
     23 C          62.9145   83.4882   13.3682 C.3     1  UNL1        0.1530
     24 S          63.3886   84.3133   14.5277 S.O2    1  UNL1       -0.0082
     25 C          63.8627   85.1384   15.6872 C.3     1  UNL1        0.1760
     26 O          64.8117   84.0352   14.1438 O.2     1  UNL1       -0.1729
     27 O          61.9654   84.5914   14.9117 O.2     1  UNL1       -0.1729
     28 N          67.1555   94.5104   11.0076 N.am    1  UNL1       -0.3039
     29 C          66.0306   93.5809   11.3556 C.2     1  UNL1        0.2488
     30 O          65.0604   93.1483   10.2966 O.2     1  UNL1       -0.2700
     31 H          67.7923   94.7943   11.7026 H       1  UNL1        0.1496
     32 C          66.5076   96.2273    9.9436 C.3     1  UNL1        0.0196
     33 C          67.3099   95.0071    9.6007 C.3     1  UNL1        0.0572
     34 C          68.1122   93.7870    9.2579 C.3     1  UNL1        0.0196
     35 C          67.4644   95.5039    8.1939 C.3     1  UNL1        0.0196
@<TRIPOS>BOND
     1    32    33    1
     2    33    34    1
     3    33    35    1
     4    33    28    1
     5    28    29   am
     6    29    30    2
     7    29     1    1
     8     1     2   ar
     9     2     3   ar
    10     3     4   ar
    11     4     5   ar
    12     5     6   ar
    13     6     7   ar
    14     7    11    1
    15    11    12   ar
    16    12    13   ar
    17    13    21    1
    18    21    22    1
    19    22    23    1
    20    23    24    1
    21    24    25    1
    22    24    26    2
    23    24    27    2
    24    13    14   ar
    25    14    15   ar
    26    15    16   ar
    27    16    17    1
    28    16    18   ar
    29    18    19   ar
    30    19    20   ar
    31     7     8   ar
    32     8     9   ar
    33     9     1   ar
    34     9     4    1
    35    20    11   ar
    36    20    14   ar
    37    28    31    1
    38     5    10    1
@<TRIPOS>MOLECULE
*****
 35 38 0 0 0
SMALL
GASTEIGER

@<TRIPOS>ATOM
      1 C          63.9173   85.2299   14.4106 C.ar    1  UNL1        0.0930
      2 C          64.6393   85.9055   15.5385 C.ar    1  UNL1        0.1067
      3 N          64.6409   87.3813   15.2699 N.ar    1  UNL1       -0.2252
      4 C          63.9200   87.6177   13.9760 C.ar    1  UNL1        0.1586
      5 N          63.6129   88.8720   13.2128 N.ar    1  UNL1       -0.3349
      6 C          62.8587   88.7966   11.9184 C.ar    1  UNL1        0.0945
      7 C          62.4114   87.4670   11.3873 C.ar    1  UNL1        0.1176
      8 N          62.7185   86.2127   12.1505 N.ar    1  UNL1       -0.2390
      9 C          63.4727   86.2881   13.4449 C.ar    1  UNL1        0.1210
     10 H          63.9065   89.7447   13.5613 H       1  UNL1        0.1675
     11 C          61.6571   87.3916   10.0929 C.ar    1  UNL1        0.1213
     12 N          60.5599   88.3168    9.6567 N.ar    1  UNL1       -0.1677
     13 N          60.0923   87.8749    8.3017 N.ar    1  UNL1       -0.2507
     14 C          60.9005   86.6766    7.9005 C.ar    1  UNL1        0.0816
     15 C          60.8807   85.8188    6.6702 C.ar    1  UNL1        0.0484
     16 C          61.8279   84.6624    6.5468 C.ar    1  UNL1        0.1416
     17 F          61.8081   83.8045    5.3164 F       1  UNL1       -0.2041
     18 C          62.7951   84.3637    7.6539 C.ar    1  UNL1        0.0298
     19 C          62.8149   85.2215    8.8842 C.ar    1  UNL1        0.0054
     20 C          61.8676   86.3779    9.0075 C.ar    1  UNL1        0.0383
     21 C          59.0070   88.5183    7.4904 C.3     1  UNL1        0.1293
     22 C          59.3608   89.3926    6.3240 C.3     1  UNL1        0.0516
     23 C          58.4620   90.5305    5.9399 C.3     1  UNL1        0.1530
     24 S          58.9232   91.5442    4.9350 S.O2    1  UNL1       -0.0082
     25 C          59.3842   92.5579    3.9302 C.3     1  UNL1        0.1760
     26 O          60.3314   91.0489    5.0816 O.2     1  UNL1       -0.1729
     27 O          57.5148   92.0395    4.7885 O.2     1  UNL1       -0.1729
     28 N          62.7819   83.2375   13.1893 N.am    1  UNL1       -0.3039
     29 C          63.6813   83.7551   14.2725 C.2     1  UNL1        0.2488
     30 O          64.3446   82.7976   15.2176 O.2     1  UNL1       -0.2700
     31 H          62.3465   83.8659   12.5689 H       1  UNL1        0.1496
     32 C          61.6090   81.8031   14.2220 C.3     1  UNL1        0.0196
     33 C          62.5459   81.7627   13.0512 C.3     1  UNL1        0.0572
     34 C          63.4829   81.7223   11.8805 C.3     1  UNL1        0.0196
     35 C          62.3099   80.2879   12.9132 C.3     1  UNL1        0.0196
@<TRIPOS>BOND
     1    32    33    1
     2    33    34    1
     3    33    35    1
     4    33    28    1
     5    28    29   am
     6    29    30    2
     7    29     1    1
     8     1     2   ar
     9     2     3   ar
    10     3     4   ar
    11     4     5   ar
    12     5     6   ar
    13     6     7   ar
    14     7    11    1
    15    11    12   ar
    16    12    13   ar
    17    13    21    1
    18    21    22    1
    19    22    23    1
    20    23    24    1
    21    24    25    1
    22    24    26    2
    23    24    27    2
    24    13    14   ar
    25    14    15   ar
    26    15    16   ar
    27    16    17    1
    28    16    18   ar
    29    18    19   ar
    30    19    20   ar
    31     7     8   ar
    32     8     9   ar
    33     9     1   ar
    34     9     4    1
    35    20    11   ar
    36    20    14   ar
    37    28    31    1
    38     5    10    1
@<TRIPOS>MOLECULE
*****
 35 38 0 0 0
SMALL
GASTEIGER

@<TRIPOS>ATOM
      1 C          61.7338   86.5069   10.8442 C.ar    1  UNL1        0.0930
      2 C          60.5400   86.0994   10.0325 C.ar    1  UNL1        0.1067
      3 N          60.0132   87.3201    9.3380 N.ar    1  UNL1       -0.2252
      4 C          60.8814   88.4820    9.7204 C.ar    1  UNL1        0.1586
      5 N          60.8411   89.9327    9.3413 N.ar    1  UNL1       -0.3349
      6 C          61.8642   90.8808    9.8930 C.ar    1  UNL1        0.0945
      7 C          62.9276   90.3781   10.8239 C.ar    1  UNL1        0.1176
      8 N          62.9679   88.9274   11.2030 N.ar    1  UNL1       -0.2390
      9 C          61.9448   87.9794   10.6513 C.ar    1  UNL1        0.1210
     10 H          60.1431   90.2626    8.7303 H       1  UNL1        0.1675
     11 C          63.9507   91.3263   11.3756 C.ar    1  UNL1        0.1213
     12 N          64.7093   92.3575   10.5938 N.ar    1  UNL1       -0.1677
     13 N          65.6223   93.0782   11.5409 N.ar    1  UNL1       -0.2507
     14 C          65.4279   92.4924   12.9081 C.ar    1  UNL1        0.0816
     15 C          66.0581   92.8051   14.2329 C.ar    1  UNL1        0.0484
     16 C          65.6553   92.0350   15.4554 C.ar    1  UNL1        0.1416
     17 F          66.2855   92.3477   16.7803 F       1  UNL1       -0.2041
     18 C          64.6221   90.9522   15.3532 C.ar    1  UNL1        0.0298
     19 C          63.9919   90.6396   14.0285 C.ar    1  UNL1        0.0054
     20 C          64.3948   91.4097   12.8059 C.ar    1  UNL1        0.0383
     21 C          66.5642   94.1895   11.1836 C.3     1  UNL1        0.1293
     22 C          66.0570   95.5971   11.0760 C.3     1  UNL1        0.0516
     23 C          66.7210   96.5641   10.1411 C.3     1  UNL1        0.1530
     24 S          66.2689   96.6580    8.7139 S.O2    1  UNL1       -0.0082
     25 C          65.8166   96.7520    7.2868 C.3     1  UNL1        0.1760
     26 O          67.6826   96.4614    8.2530 O.2     1  UNL1       -0.1729
     27 O          64.8550   96.8547    9.1748 O.2     1  UNL1       -0.1729
     28 N          62.6544   84.1373   11.3809 N.am    1  UNL1       -0.3039
     29 C          62.5698   85.6009   11.6987 C.2     1  UNL1        0.2488
     30 O          63.3213   86.1583   12.8710 O.2     1  UNL1       -0.2700
     31 H          62.1611   83.7714   10.6114 H       1  UNL1        0.1496
     32 C          64.5976   83.3008   11.2257 C.3     1  UNL1        0.0196
     33 C          63.4904   83.2313   12.2354 C.3     1  UNL1        0.0572
     34 C          62.3832   83.1619   13.2450 C.3     1  UNL1        0.0196
     35 C          64.3264   82.3254   13.0899 C.3     1  UNL1        0.0196
@<TRIPOS>BOND
     1    32    33    1
     2    33    34    1
     3    33    35    1
     4    33    28    1
     5    28    29   am
     6    29    30    2
     7    29     1    1
     8     1     2   ar
     9     2     3   ar
    10     3     4   ar
    11     4     5   ar
    12     5     6   ar
    13     6     7   ar
    14     7    11    1
    15    11    12   ar
    16    12    13   ar
    17    13    21    1
    18    21    22    1
    19    22    23    1
    20    23    24    1
    21    24    25    1
    22    24    26    2
    23    24    27    2
    24    13    14   ar
    25    14    15   ar
    26    15    16   ar
    27    16    17    1
    28    16    18   ar
    29    18    19   ar
    30    19    20   ar
    31     7     8   ar
    32     8     9   ar
    33     9     1   ar
    34     9     4    1
    35    20    11   ar
    36    20    14   ar
    37    28    31    1
    38     5    10    1
@<TRIPOS>MOLECULE
*****
 35 38 0 0 0
SMALL
GASTEIGER

@<TRIPOS>ATOM
      1 C          65.8392   92.7035   12.8776 C.ar    1  UNL1        0.0930
      2 C          66.1818   93.6390   13.9989 C.ar    1  UNL1        0.1067
      3 N          65.7360   93.0056   15.2835 N.ar    1  UNL1       -0.2252
      4 C          65.1178   91.6787   14.9560 C.ar    1  UNL1        0.1586
      5 N          64.5051   90.6164   15.8197 N.ar    1  UNL1       -0.3349
      6 C          63.9562   89.3673   15.1964 C.ar    1  UNL1        0.0945
      7 C          64.0201   89.1806   13.7095 C.ar    1  UNL1        0.1176
      8 N          64.6328   90.2429   12.8458 N.ar    1  UNL1       -0.2390
      9 C          65.1817   91.4919   13.4691 C.ar    1  UNL1        0.1210
     10 H          64.4632   90.7389   16.7957 H       1  UNL1        0.1675
     11 C          63.4711   87.9314   13.0862 C.ar    1  UNL1        0.1213
     12 N          63.5664   86.5468   13.6553 N.ar    1  UNL1       -0.1677
     13 N          62.8847   85.6072   12.7053 N.ar    1  UNL1       -0.2507
     14 C          62.3682   86.4112   11.5490 C.ar    1  UNL1        0.0816
     15 C          61.6147   86.0208   10.3122 C.ar    1  UNL1        0.0484
     16 C          61.2236   87.0668    9.3108 C.ar    1  UNL1        0.1416
     17 F          60.4700   86.6764    8.0739 F       1  UNL1       -0.2041
     18 C          61.5860   88.5033    9.5462 C.ar    1  UNL1        0.0298
     19 C          62.3395   88.8936   10.7830 C.ar    1  UNL1        0.0054
     20 C          62.7306   87.8476   11.7845 C.ar    1  UNL1        0.0383
     21 C          62.7443   84.1242   12.8808 C.3     1  UNL1        0.1293
     22 C          63.8740   83.3275   13.4630 C.3     1  UNL1        0.0516
     23 C          64.1536   81.9430   12.9582 C.3     1  UNL1        0.1530
     24 S          63.6984   81.5384   11.5874 S.O2    1  UNL1       -0.0082
     25 C          63.2432   81.1338   10.2166 C.3     1  UNL1        0.1760
     26 O          62.6145   80.6984   12.1953 O.2     1  UNL1       -0.1729
     27 O          64.7823   82.3784   10.9795 O.2     1  UNL1       -0.1729
     28 N          67.4033   93.5561   10.9863 N.am    1  UNL1       -0.3039
     29 C          66.1072   92.9382   11.4205 C.2     1  UNL1        0.2488
     30 O          65.0792   92.5552   10.3976 O.2     1  UNL1       -0.2700
     31 H          68.0781   93.8075   11.6576 H       1  UNL1        0.1496
     32 C          67.1041   95.1745    9.6479 C.3     1  UNL1        0.0196
     33 C          67.6712   93.7909    9.5292 C.3     1  UNL1        0.0572
     34 C          68.2383   92.4073    9.4105 C.3     1  UNL1        0.0196
     35 C          67.9391   94.0257    8.0722 C.3     1  UNL1        0.0196
@<TRIPOS>BOND
     1    32    33    1
     2    33    34    1
     3    33    35    1
     4    33    28    1
     5    28    29   am
     6    29    30    2
     7    29     1    1
     8     1     2   ar
     9     2     3   ar
    10     3     4   ar
    11     4     5   ar
    12     5     6   ar
    13     6     7   ar
    14     7    11    1
    15    11    12   ar
    16    12    13   ar
    17    13    21    1
    18    21    22    1
    19    22    23    1
    20    23    24    1
    21    24    25    1
    22    24    26    2
    23    24    27    2
    24    13    14   ar
    25    14    15   ar
    26    15    16   ar
    27    16    17    1
    28    16    18   ar
    29    18    19   ar
    30    19    20   ar
    31     7     8   ar
    32     8     9   ar
    33     9     1   ar
    34     9     4    1
    35    20    11   ar
    36    20    14   ar
    37    28    31    1
    38     5    10    1
@<TRIPOS>MOLECULE
*****
 35 38 0 0 0
SMALL
GASTEIGER

@<TRIPOS>ATOM
      1 C          63.4057   85.2797   15.2585 C.ar    1  UNL1        0.0930
      2 C          62.7230   84.6629   16.4432 C.ar    1  UNL1        0.1067
      3 N          62.3864   85.7613   17.4077 N.ar    1  UNL1       -0.2252
      4 C          62.8611   87.0567   16.8192 C.ar    1  UNL1        0.1586
      5 N          62.8011   88.4689   17.3212 N.ar    1  UNL1       -0.3349
      6 C          63.3711   89.5835   16.4949 C.ar    1  UNL1        0.0945
      7 C          64.0010   89.2858   15.1665 C.ar    1  UNL1        0.1176
      8 N          64.0610   87.8736   14.6645 N.ar    1  UNL1       -0.2390
      9 C          63.4911   86.7591   15.4908 C.ar    1  UNL1        0.1210
     10 H          62.3876   88.6643   18.1931 H       1  UNL1        0.1675
     11 C          64.5710   90.4005   14.3402 C.ar    1  UNL1        0.1213
     12 N          64.2398   90.6938   12.9069 N.ar    1  UNL1       -0.1677
     13 N          65.0363   91.8920   12.4829 N.ar    1  UNL1       -0.2507
     14 C          65.8599   92.3392   13.6542 C.ar    1  UNL1        0.0816
     15 C          66.8345   93.4668   13.8238 C.ar    1  UNL1        0.0484
     16 C          67.5215   93.6725   15.1412 C.ar    1  UNL1        0.1416
     17 F          68.4961   94.8001   15.3109 F       1  UNL1       -0.2041
     18 C          67.2339   92.7506   16.2891 C.ar    1  UNL1        0.0298
     19 C          66.2593   91.6231   16.1195 C.ar    1  UNL1        0.0054
     20 C          65.5723   91.4174   14.8020 C.ar    1  UNL1        0.0383
     21 C          65.0134   92.5308   11.1259 C.3     1  UNL1        0.1293
     22 C          66.2749   93.0924   10.5400 C.3     1  UNL1        0.0516
     23 C          66.5738   94.5568   10.6671 C.3     1  UNL1        0.1530
     24 S          67.0465   95.3322    9.4733 S.O2    1  UNL1       -0.0082
     25 C          67.5192   96.1076    8.2794 C.3     1  UNL1        0.1760
     26 O          68.3249   94.5475    9.4698 O.2     1  UNL1       -0.1729
     27 O          65.7681   96.1169    9.4767 O.2     1  UNL1       -0.1729
     28 N          62.9487   83.8726   13.1226 N.am    1  UNL1       -0.3039
     29 C          63.9139   84.5458   14.0530 C.2     1  UNL1        0.2488
     30 O          65.3871   84.4850   13.7777 O.2     1  UNL1       -0.2700
     31 H          61.9817   83.9125   13.3033 H       1  UNL1        0.1496
     32 C          63.1276   84.3231   11.0575 C.3     1  UNL1        0.0196
     33 C          63.4569   83.1387   11.9171 C.3     1  UNL1        0.0572
     34 C          63.7861   81.9545   12.7769 C.3     1  UNL1        0.0196
     35 C          63.9650   82.4049   10.7117 C.3     1  UNL1        0.0196
@<TRIPOS>BOND
     1    32    33    1
     2    33    34    1
     3    33    35    1
     4    33    28    1
     5    28    29   am
     6    29    30    2
     7    29     1    1
     8     1     2   ar
     9     2     3   ar
    10     3     4   ar
    11     4     5   ar
    12     5     6   ar
    13     6     7   ar
    14     7    11    1
    15    11    12   ar
    16    12    13   ar
    17    13    21    1
    18    21    22    1
    19    22    23    1
    20    23    24    1
    21    24    25    1
    22    24    26    2
    23    24    27    2
    24    13    14   ar
    25    14    15   ar
    26    15    16   ar
    27    16    17    1
    28    16    18   ar
    29    18    19   ar
    30    19    20   ar
    31     7     8   ar
    32     8     9   ar
    33     9     1   ar
    34     9     4    1
    35    20    11   ar
    36    20    14   ar
    37    28    31    1
    38     5    10    1
@<TRIPOS>MOLECULE
*****
 35 38 0 0 0
SMALL
GASTEIGER

@<TRIPOS>ATOM
      1 C          65.8503   92.4386   14.4987 C.ar    1  UNL1        0.0930
      2 C          65.7943   93.2647   15.7495 C.ar    1  UNL1        0.1067
      3 N          64.9242   92.5484   16.7393 N.ar    1  UNL1       -0.2252
      4 C          64.4424   91.2797   16.1003 C.ar    1  UNL1        0.1586
      5 N          63.5565   90.1775   16.6004 N.ar    1  UNL1       -0.3349
      6 C          63.2430   89.0074   15.7158 C.ar    1  UNL1        0.0945
      7 C          63.8154   88.9396   14.3309 C.ar    1  UNL1        0.1176
      8 N          64.7013   90.0418   13.8308 N.ar    1  UNL1       -0.2390
      9 C          65.0148   91.2119   14.7154 C.ar    1  UNL1        0.1210
     10 H          63.1808   90.2220   17.5093 H       1  UNL1        0.1675
     11 C          63.5018   87.7695   13.4462 C.ar    1  UNL1        0.1213
     12 N          62.9012   87.8381   12.0735 N.ar    1  UNL1       -0.1677
     13 N          62.7620   86.4364   11.5578 N.ar    1  UNL1       -0.2507
     14 C          63.2767   85.5015   12.6119 C.ar    1  UNL1        0.0816
     15 C          63.3880   84.0064   12.6598 C.ar    1  UNL1        0.0484
     16 C          63.9566   83.3353   13.8747 C.ar    1  UNL1        0.1416
     17 F          64.0680   81.8401   13.9226 F       1  UNL1       -0.2041
     18 C          64.4139   84.1592   15.0419 C.ar    1  UNL1        0.0298
     19 C          64.3025   85.6542   14.9940 C.ar    1  UNL1        0.0054
     20 C          63.7339   86.3254   13.7790 C.ar    1  UNL1        0.0383
     21 C          62.2058   86.0394   10.2225 C.3     1  UNL1        0.1293
     22 C          61.3562   87.0025    9.4475 C.3     1  UNL1        0.0516
     23 C          60.0939   87.5429   10.0513 C.3     1  UNL1        0.1530
     24 S          60.0265   88.9752   10.4915 S.O2    1  UNL1       -0.0082
     25 C          59.9592   90.4076   10.9316 C.3     1  UNL1        0.1760
     26 O          59.6057   88.5343   11.8620 O.2     1  UNL1       -0.1729
     27 O          60.4475   89.4162    9.1209 O.2     1  UNL1       -0.1729
     28 N          65.9003   93.4211   12.0940 N.am    1  UNL1       -0.3039
     29 C          66.6087   92.7795   13.2502 C.2     1  UNL1        0.2488
     30 O          68.0753   92.4789   13.1578 O.2     1  UNL1       -0.2700
     31 H          64.9377   93.6185   12.1545 H       1  UNL1        0.1496
     32 C          66.5227   95.2220   11.1616 C.3     1  UNL1        0.0196
     33 C          66.6587   93.7620   10.8455 C.3     1  UNL1        0.0572
     34 C          66.7947   92.3020   10.5294 C.3     1  UNL1        0.0196
     35 C          67.4171   94.1029    9.5971 C.3     1  UNL1        0.0196
@<TRIPOS>BOND
     1    32    33    1
     2    33    34    1
     3    33    35    1
     4    33    28    1
     5    28    29   am
     6    29    30    2
     7    29     1    1
     8     1     2   ar
     9     2     3   ar
    10     3     4   ar
    11     4     5   ar
    12     5     6   ar
    13     6     7   ar
    14     7    11    1
    15    11    12   ar
    16    12    13   ar
    17    13    21    1
    18    21    22    1
    19    22    23    1
    20    23    24    1
    21    24    25    1
    22    24    26    2
    23    24    27    2
    24    13    14   ar
    25    14    15   ar
    26    15    16   ar
    27    16    17    1
    28    16    18   ar
    29    18    19   ar
    30    19    20   ar
    31     7     8   ar
    32     8     9   ar
    33     9     1   ar
    34     9     4    1
    35    20    11   ar
    36    20    14   ar
    37    28    31    1
    38     5    10    1
@<TRIPOS>MOLECULE
*****
 35 38 0 0 0
SMALL
GASTEIGER

@<TRIPOS>ATOM
      1 C          63.0721   83.5075   13.0597 C.ar    1  UNL1        0.0930
      2 C          62.8899   82.3219   13.9603 C.ar    1  UNL1        0.1067
      3 N          63.0536   82.7865   15.3771 N.ar    1  UNL1       -0.2252
      4 C          63.3369   84.2593   15.3521 C.ar    1  UNL1        0.1586
      5 N          63.5860   85.2522   16.4485 N.ar    1  UNL1       -0.3349
      6 C          63.8465   86.6907   16.1127 C.ar    1  UNL1        0.0945
      7 C          63.8579   87.1363   14.6804 C.ar    1  UNL1        0.1176
      8 N          63.6088   86.1434   13.5840 N.ar    1  UNL1       -0.2390
      9 C          63.3483   84.7049   13.9199 C.ar    1  UNL1        0.1210
     10 H          63.5784   84.9597   17.3885 H       1  UNL1        0.1675
     11 C          64.1184   88.5749   14.3446 C.ar    1  UNL1        0.1213
     12 N          64.8164   89.5724   15.2209 N.ar    1  UNL1       -0.1677
     13 N          64.8561   90.8825   14.4915 N.ar    1  UNL1       -0.2507
     14 C          64.1826   90.6946   13.1644 C.ar    1  UNL1        0.0816
     15 C          63.9255   91.6380   12.0268 C.ar    1  UNL1        0.0484
     16 C          63.2127   91.1552   10.7986 C.ar    1  UNL1        0.1416
     17 F          62.9556   92.0986    9.6610 F       1  UNL1       -0.2041
     18 C          62.7568   89.7290   10.7078 C.ar    1  UNL1        0.0298
     19 C          63.0138   88.7857   11.8453 C.ar    1  UNL1        0.0054
     20 C          63.7267   89.2685   13.0736 C.ar    1  UNL1        0.0383
     21 C          65.4627   92.1566   14.9999 C.3     1  UNL1        0.1293
     22 C          66.6933   92.7138   14.3479 C.3     1  UNL1        0.0516
     23 C          66.5701   93.7872   13.3073 C.3     1  UNL1        0.1530
     24 S          66.7376   93.4474   11.8560 S.O2    1  UNL1       -0.0082
     25 C          66.9050   93.1078   10.4045 C.3     1  UNL1        0.1760
     26 O          67.6225   92.2948   12.2278 O.2     1  UNL1       -0.1729
     27 O          65.8526   94.6001   11.4841 O.2     1  UNL1       -0.1729
     28 N          62.9948   84.7909   10.8020 N.am    1  UNL1       -0.3039
     29 C          62.9921   83.4976   11.5619 C.2     1  UNL1        0.2488
     30 O          62.9093   82.1944   10.8238 O.2     1  UNL1       -0.2700
     31 H          63.0492   85.6463   11.2864 H       1  UNL1        0.1496
     32 C          61.8202   85.8053    9.3559 C.3     1  UNL1        0.0196
     33 C          62.9148   84.7810    9.3042 C.3     1  UNL1        0.0572
     34 C          64.0094   83.7567    9.2525 C.3     1  UNL1        0.0196
     35 C          62.8348   84.7710    7.8064 C.3     1  UNL1        0.0196
@<TRIPOS>BOND
     1    32    33    1
     2    33    34    1
     3    33    35    1
     4    33    28    1
     5    28    29   am
     6    29    30    2
     7    29     1    1
     8     1     2   ar
     9     2     3   ar
    10     3     4   ar
    11     4     5   ar
    12     5     6   ar
    13     6     7   ar
    14     7    11    1
    15    11    12   ar
    16    12    13   ar
    17    13    21    1
    18    21    22    1
    19    22    23    1
    20    23    24    1
    21    24    25    1
    22    24    26    2
    23    24    27    2
    24    13    14   ar
    25    14    15   ar
    26    15    16   ar
    27    16    17    1
    28    16    18   ar
    29    18    19   ar
    30    19    20   ar
    31     7     8   ar
    32     8     9   ar
    33     9     1   ar
    34     9     4    1
    35    20    11   ar
    36    20    14   ar
    37    28    31    1
    38     5    10    1
@<TRIPOS>MOLECULE
*****
 35 38 0 0 0
SMALL
GASTEIGER

@<TRIPOS>ATOM
      1 C          63.3196   85.2248   15.7560 C.ar    1  UNL1        0.0930
      2 C          62.8117   84.7211   17.0745 C.ar    1  UNL1        0.1067
      3 N          62.6072   85.9034   17.9746 N.ar    1  UNL1       -0.2252
      4 C          62.9887   87.1378   17.2125 C.ar    1  UNL1        0.1586
      5 N          62.9921   88.5895   17.5900 N.ar    1  UNL1       -0.3349
      6 C          63.4357   89.6217   16.5963 C.ar    1  UNL1        0.0945
      7 C          63.8760   89.2023   15.2251 C.ar    1  UNL1        0.1176
      8 N          63.8727   87.7506   14.8476 N.ar    1  UNL1       -0.2390
      9 C          63.4290   86.7183   15.8413 C.ar    1  UNL1        0.1210
     10 H          62.7031   88.8648   18.4900 H       1  UNL1        0.1675
     11 C          64.3197   90.2346   14.2313 C.ar    1  UNL1        0.1213
     12 N          65.3752   91.2769   14.4544 N.ar    1  UNL1       -0.1677
     13 N          65.4936   92.0923   13.2010 N.ar    1  UNL1       -0.2507
     14 C          64.5113   91.5541   12.2033 C.ar    1  UNL1        0.0816
     15 C          64.1837   91.9611   10.7972 C.ar    1  UNL1        0.0484
     16 C          63.1307   91.2201   10.0280 C.ar    1  UNL1        0.1416
     17 F          62.8031   91.6271    8.6218 F       1  UNL1       -0.2041
     18 C          62.4051   90.0719   10.6647 C.ar    1  UNL1        0.0298
     19 C          62.7327   89.6649   12.0708 C.ar    1  UNL1        0.0054
     20 C          63.7858   90.4060   12.8401 C.ar    1  UNL1        0.0383
     21 C          66.4300   93.2438   12.9835 C.3     1  UNL1        0.1293
     22 C          66.1451   94.2492   11.9073 C.3     1  UNL1        0.0516
     23 C          66.8324   94.1404   10.5785 C.3     1  UNL1        0.1530
     24 S          67.0646   95.3700    9.7514 S.O2    1  UNL1       -0.0082
     25 C          67.2967   96.5998    8.9244 C.3     1  UNL1        0.1760
     26 O          67.5579   94.5166    8.6209 O.2     1  UNL1       -0.1729
     27 O          66.5713   96.2236   10.8820 O.2     1  UNL1       -0.1729
     28 N          62.5749   83.6461   13.8315 N.am    1  UNL1       -0.3039
     29 C          63.6586   84.3827   14.5619 C.2     1  UNL1        0.2488
     30 O          65.0811   84.2772   14.0980 O.2     1  UNL1       -0.2700
     31 H          61.6413   83.7153   14.1360 H       1  UNL1        0.1496
     32 C          62.7160   83.9922   11.7434 C.3     1  UNL1        0.0196
     33 C          62.9139   82.8040   12.6374 C.3     1  UNL1        0.0572
     34 C          63.1118   81.6159   13.5314 C.3     1  UNL1        0.0196
     35 C          63.2529   81.9620   11.4433 C.3     1  UNL1        0.0196
@<TRIPOS>BOND
     1    32    33    1
     2    33    34    1
     3    33    35    1
     4    33    28    1
     5    28    29   am
     6    29    30    2
     7    29     1    1
     8     1     2   ar
     9     2     3   ar
    10     3     4   ar
    11     4     5   ar
    12     5     6   ar
    13     6     7   ar
    14     7    11    1
    15    11    12   ar
    16    12    13   ar
    17    13    21    1
    18    21    22    1
    19    22    23    1
    20    23    24    1
    21    24    25    1
    22    24    26    2
    23    24    27    2
    24    13    14   ar
    25    14    15   ar
    26    15    16   ar
    27    16    17    1
    28    16    18   ar
    29    18    19   ar
    30    19    20   ar
    31     7     8   ar
    32     8     9   ar
    33     9     1   ar
    34     9     4    1
    35    20    11   ar
    36    20    14   ar
    37    28    31    1
    38     5    10    1
@<TRIPOS>MOLECULE
*****
 35 38 0 0 0
SMALL
GASTEIGER

@<TRIPOS>ATOM
      1 C          61.8102   86.0049    9.3039 C.ar    1  UNL1        0.0930
      2 C          60.9188   85.9824    8.0977 C.ar    1  UNL1        0.1067
      3 N          60.2982   87.3405    7.9547 N.ar    1  UNL1       -0.2252
      4 C          60.8060   88.2023    9.0724 C.ar    1  UNL1        0.1586
      5 N          60.5383   89.6321    9.4386 N.ar    1  UNL1       -0.3349
      6 C          61.2050   90.2364   10.6387 C.ar    1  UNL1        0.0945
      7 C          62.1395   89.4109   11.4726 C.ar    1  UNL1        0.1176
      8 N          62.4073   87.9812   11.1064 N.ar    1  UNL1       -0.2390
      9 C          61.7405   87.3769    9.9063 C.ar    1  UNL1        0.1210
     10 H          59.9250   90.1738    8.8913 H       1  UNL1        0.1675
     11 C          62.8063   90.0153   12.6727 C.ar    1  UNL1        0.1213
     12 N          62.4864   89.7101   14.1061 N.ar    1  UNL1       -0.1677
     13 N          63.3923   90.5371   14.9694 N.ar    1  UNL1       -0.2507
     14 C          64.2721   91.3534   14.0696 C.ar    1  UNL1        0.0816
     15 C          65.3563   92.3487   14.3593 C.ar    1  UNL1        0.0484
     16 C          66.0781   93.0215   13.2297 C.ar    1  UNL1        0.1416
     17 F          67.1624   94.0169   13.5195 F       1  UNL1       -0.2041
     18 C          65.7159   92.6990   11.8102 C.ar    1  UNL1        0.0298
     19 C          64.6318   91.7037   11.5205 C.ar    1  UNL1        0.0054
     20 C          63.9099   91.0309   12.6502 C.ar    1  UNL1        0.0383
     21 C          63.4146   90.5462   16.4692 C.3     1  UNL1        0.1293
     22 C          63.4718   89.2525   17.2263 C.3     1  UNL1        0.0516
     23 C          62.4949   88.1576   16.9151 C.3     1  UNL1        0.1530
     24 S          62.9819   86.7535   16.7118 S.O2    1  UNL1       -0.0082
     25 C          63.4687   85.3493   16.5087 C.3     1  UNL1        0.1760
     26 O          63.9134   87.2319   15.6380 O.2     1  UNL1       -0.1729
     27 O          62.0502   86.2750   17.7857 O.2     1  UNL1       -0.1729
     28 N          62.5302   84.4523   11.2587 N.am    1  UNL1       -0.3039
     29 C          62.6278   84.8570    9.8176 C.2     1  UNL1        0.2488
     30 O          63.5429   84.1137    8.8903 O.2     1  UNL1       -0.2700
     31 H          61.9296   84.9401   11.8674 H       1  UNL1        0.1496
     32 C          64.0857   84.2385   12.6851 C.3     1  UNL1        0.0196
     33 C          63.3478   83.3044   11.7724 C.3     1  UNL1        0.0572
     34 C          62.6098   82.3704   10.8597 C.3     1  UNL1        0.0196
     35 C          64.1653   82.1565   12.2861 C.3     1  UNL1        0.0196
@<TRIPOS>BOND
     1    32    33    1
     2    33    34    1
     3    33    35    1
     4    33    28    1
     5    28    29   am
     6    29    30    2
     7    29     1    1
     8     1     2   ar
     9     2     3   ar
    10     3     4   ar
    11     4     5   ar
    12     5     6   ar
    13     6     7   ar
    14     7    11    1
    15    11    12   ar
    16    12    13   ar
    17    13    21    1
    18    21    22    1
    19    22    23    1
    20    23    24    1
    21    24    25    1
    22    24    26    2
    23    24    27    2
    24    13    14   ar
    25    14    15   ar
    26    15    16   ar
    27    16    17    1
    28    16    18   ar
    29    18    19   ar
    30    19    20   ar
    31     7     8   ar
    32     8     9   ar
    33     9     1   ar
    34     9     4    1
    35    20    11   ar
    36    20    14   ar
    37    28    31    1
    38     5    10    1
