@<TRIPOS>MOLECULE
*****
 39 43 0 0 0
SMALL
GASTEIGER

@<TRIPOS>ATOM
      1 C          63.9645   86.4941   15.5595 C.ar    1  UNL1        0.0611
      2 C          63.2459   86.0772   16.8084 C.ar    1  UNL1        0.1037
      3 N          62.8041   87.3186   17.5252 N.ar    1  UNL1       -0.2269
      4 C          63.2497   88.5027   16.7193 C.ar    1  UNL1        0.1407
      5 N          63.0950   89.9790   16.9348 N.ar    1  UNL1       -0.3374
      6 C          63.6575   90.9458   15.9354 C.ar    1  UNL1        0.0735
      7 C          64.3747   90.4362   14.7205 C.ar    1  UNL1        0.0201
      8 C          64.5294   88.9599   14.5050 C.ar    1  UNL1        0.0047
      9 C          63.9669   87.9931   15.5044 C.ar    1  UNL1        0.0386
     10 H          62.6243   90.3135   17.7322 H       1  UNL1        0.1674
     11 C          64.9373   91.4031   13.7211 C.ar    1  UNL1        0.0399
     12 C          66.1120   92.2611   14.0867 C.ar    1  UNL1        0.1034
     13 N          66.6745   93.2280   13.0873 N.ar    1  UNL1       -0.2121
     14 C          66.0623   93.3367   11.7222 C.ar    1  UNL1        0.2202
     15 N          64.8876   92.4786   11.3566 N.ar    1  UNL1       -0.2121
     16 C          64.3251   91.5118   12.3560 C.ar    1  UNL1        0.1034
     17 N          66.6248   94.3035   10.7228 N.pl3   1  UNL1       -0.2782
     18 C          67.4134   93.9463    9.4978 C.3     1  UNL1        0.0937
     19 C          67.7735   95.2193    8.7908 C.3     1  UNL1        0.0233
     20 C          67.2073   96.3633    9.5788 C.3     1  UNL1        0.0233
     21 C          66.4974   95.7972   10.7728 C.3     1  UNL1        0.0937
     22 C          64.5739   85.5736   14.5439 C.2     1  UNL1        0.2015
     23 O          66.0046   85.1453   14.6828 O.2     1  UNL1       -0.2864
     24 C          62.4077   85.5605   11.2186 C.ar    1  UNL1        0.0920
     25 C          62.1093   84.0970   11.0804 C.ar    1  UNL1        0.0204
     26 C          62.6325   83.1257   12.0967 C.ar    1  UNL1        0.0312
     27 C          63.4540   83.6178   13.2512 C.ar    1  UNL1        0.1454
     28 F          63.9771   82.6466   14.2675 F       1  UNL1       -0.2040
     29 C          63.7523   85.0814   13.3894 C.ar    1  UNL1        0.0951
     30 C          63.2292   86.0527   12.3731 C.ar    1  UNL1        0.1598
     31 F          63.5276   87.5162   12.5113 F       1  UNL1       -0.2026
     32 N          61.8845   86.5318   10.2023 N.pl3   1  UNL1       -0.2166
     33 H          61.7578   87.4775   10.4448 H       1  UNL1        0.1734
     34 S          61.5545   86.0622    8.8164 S.O2    1  UNL1        0.0540
     35 O          60.1021   86.3399    9.0682 O.2     1  UNL1       -0.1545
     36 O          63.0069   85.7845    8.5647 O.2     1  UNL1       -0.1545
     37 C          61.2246   85.5926    7.4306 C.3     1  UNL1        0.1724
     38 C          61.8108   84.1030    5.3842 C.3     1  UNL1        0.0019
     39 C          62.2232   84.7862    6.6543 C.3     1  UNL1        0.0273
@<TRIPOS>BOND
     1    38    39    1
     2    39    37    1
     3    37    34    1
     4    34    35    2
     5    34    36    2
     6    34    32    1
     7    32    24    1
     8    24    25   ar
     9    25    26   ar
    10    26    27   ar
    11    27    28    1
    12    27    29   ar
    13    29    22    1
    14    22    23    2
    15    22     1    1
    16     1     2   ar
    17     2     3   ar
    18     3     4   ar
    19     4     5   ar
    20     5     6   ar
    21     6     7   ar
    22     7    11    1
    23    11    12   ar
    24    12    13   ar
    25    13    14   ar
    26    14    17    1
    27    17    18    1
    28    18    19    1
    29    19    20    1
    30    20    21    1
    31    14    15   ar
    32    15    16   ar
    33     7     8   ar
    34     8     9   ar
    35    29    30   ar
    36    30    31    1
    37    30    24   ar
    38     9     1   ar
    39     9     4    1
    40    16    11   ar
    41    21    17    1
    42    32    33    1
    43     5    10    1
@<TRIPOS>MOLECULE
*****
 39 43 0 0 0
SMALL
GASTEIGER

@<TRIPOS>ATOM
      1 C          64.0200   86.4727   15.6308 C.ar    1  UNL1        0.0611
      2 C          63.2825   86.0674   16.8725 C.ar    1  UNL1        0.1037
      3 N          62.7978   87.3140   17.5514 N.ar    1  UNL1       -0.2269
      4 C          63.2356   88.4898   16.7292 C.ar    1  UNL1        0.1407
      5 N          63.0440   89.9667   16.9081 N.ar    1  UNL1       -0.3374
      6 C          63.6078   90.9236   15.9000 C.ar    1  UNL1        0.0735
      7 C          64.3632   90.4036   14.7130 C.ar    1  UNL1        0.0201
      8 C          64.5548   88.9267   14.5341 C.ar    1  UNL1        0.0047
      9 C          63.9910   87.9698   15.5422 C.ar    1  UNL1        0.0386
     10 H          62.5482   90.3079   17.6872 H       1  UNL1        0.1674
     11 C          64.9271   91.3606   13.7048 C.ar    1  UNL1        0.0399
     12 C          66.0823   92.2435   14.0731 C.ar    1  UNL1        0.1034
     13 N          66.6461   93.2005   13.0650 N.ar    1  UNL1       -0.2121
     14 C          66.0547   93.2745   11.6885 C.ar    1  UNL1        0.2202
     15 N          64.8993   92.3915   11.3202 N.ar    1  UNL1       -0.2121
     16 C          64.3356   91.4346   12.3283 C.ar    1  UNL1        0.1034
     17 N          66.6184   94.2315   10.6803 N.pl3   1  UNL1       -0.2782
     18 C          67.3494   93.8597    9.4244 C.3     1  UNL1        0.0937
     19 C          67.7330   95.1266    8.7189 C.3     1  UNL1        0.0233
     20 C          67.2390   96.2815    9.5390 C.3     1  UNL1        0.0233
     21 C          66.5502   95.7282   10.7511 C.3     1  UNL1        0.0937
     22 C          64.6720   85.5439   14.6498 C.2     1  UNL1        0.2015
     23 O          66.1496   85.2960   14.7198 O.2     1  UNL1       -0.2864
     24 C          62.4535   84.9764   11.4084 C.ar    1  UNL1        0.0920
     25 C          62.1949   83.5015   11.4966 C.ar    1  UNL1        0.0204
     26 C          62.7619   82.7074   12.6358 C.ar    1  UNL1        0.0312
     27 C          63.5876   83.3882   13.6869 C.ar    1  UNL1        0.1454
     28 F          64.1547   82.5941   14.8261 F       1  UNL1       -0.2040
     29 C          63.8463   84.8631   13.5987 C.ar    1  UNL1        0.0951
     30 C          63.2792   85.6572   12.4595 C.ar    1  UNL1        0.1598
     31 F          63.5379   87.1321   12.3713 F       1  UNL1       -0.2026
     32 N          61.8864   85.7705   10.2692 N.pl3   1  UNL1       -0.2166
     33 H          61.7528   85.3455    9.3913 H       1  UNL1        0.1734
     34 S          61.5228   87.2122   10.4676 S.O2    1  UNL1        0.0540
     35 O          60.5613   86.8207   11.5503 O.2     1  UNL1       -0.1545
     36 O          62.4843   87.6036    9.3849 O.2     1  UNL1       -0.1545
     37 C          61.1593   88.6538   10.6659 C.3     1  UNL1        0.1724
     38 C          59.4669   90.4343   11.5119 C.3     1  UNL1        0.0019
     39 C          59.9620   89.0186   11.4927 C.3     1  UNL1        0.0273
@<TRIPOS>BOND
     1    38    39    1
     2    39    37    1
     3    37    34    1
     4    34    35    2
     5    34    36    2
     6    34    32    1
     7    32    24    1
     8    24    25   ar
     9    25    26   ar
    10    26    27   ar
    11    27    28    1
    12    27    29   ar
    13    29    22    1
    14    22    23    2
    15    22     1    1
    16     1     2   ar
    17     2     3   ar
    18     3     4   ar
    19     4     5   ar
    20     5     6   ar
    21     6     7   ar
    22     7    11    1
    23    11    12   ar
    24    12    13   ar
    25    13    14   ar
    26    14    17    1
    27    17    18    1
    28    18    19    1
    29    19    20    1
    30    20    21    1
    31    14    15   ar
    32    15    16   ar
    33     7     8   ar
    34     8     9   ar
    35    29    30   ar
    36    30    31    1
    37    30    24   ar
    38     9     1   ar
    39     9     4    1
    40    16    11   ar
    41    21    17    1
    42    32    33    1
    43     5    10    1
@<TRIPOS>MOLECULE
*****
 39 43 0 0 0
SMALL
GASTEIGER

@<TRIPOS>ATOM
      1 C          61.4528   86.4561    9.2033 C.ar    1  UNL1        0.0611
      2 C          60.1025   86.3733    8.5554 C.ar    1  UNL1        0.1037
      3 N          59.3583   87.6366    8.8719 N.ar    1  UNL1       -0.2269
      4 C          60.2487   88.5002    9.7155 C.ar    1  UNL1        0.1407
      5 N          60.0480   89.8566   10.3235 N.ar    1  UNL1       -0.3374
      6 C          61.1417   90.4834   11.1364 C.ar    1  UNL1        0.0735
      7 C          62.4362   89.7537   11.3412 C.ar    1  UNL1        0.0201
      8 C          62.6369   88.3973   10.7332 C.ar    1  UNL1        0.0047
      9 C          61.5432   87.7705    9.9203 C.ar    1  UNL1        0.0386
     10 H          59.1983   90.3355   10.1891 H       1  UNL1        0.1674
     11 C          63.5300   90.3806   12.1541 C.ar    1  UNL1        0.0399
     12 C          64.2502   91.5901   11.6363 C.ar    1  UNL1        0.1034
     13 N          65.3440   92.2170   12.4492 N.ar    1  UNL1       -0.2121
     14 C          65.7174   91.6343   13.7800 C.ar    1  UNL1        0.2202
     15 N          64.9971   90.4246   14.2978 N.ar    1  UNL1       -0.2121
     16 C          63.9034   89.7979   13.4849 C.ar    1  UNL1        0.1034
     17 N          66.8112   92.2611   14.5929 N.pl3   1  UNL1       -0.2782
     18 C          67.8695   91.5271   15.3618 C.3     1  UNL1        0.0937
     19 C          68.7510   92.5443   16.0238 C.3     1  UNL1        0.0233
     20 C          68.2375   93.9070   15.6639 C.3     1  UNL1        0.0233
     21 C          67.0386   93.7319   14.7796 C.3     1  UNL1        0.0937
     22 C          62.5246   85.4083    9.1446 C.2     1  UNL1        0.2015
     23 O          63.2071   85.1055    7.8437 O.2     1  UNL1       -0.2864
     24 C          62.6526   84.2520   12.9390 C.ar    1  UNL1        0.0920
     25 C          63.6926   83.1733   12.8717 C.ar    1  UNL1        0.0204
     26 C          64.3433   82.8395   11.5620 C.ar    1  UNL1        0.0312
     27 C          63.9540   83.5845   10.3197 C.ar    1  UNL1        0.1454
     28 F          64.6047   83.2507    9.0100 F       1  UNL1       -0.2040
     29 C          62.9140   84.6632   10.3870 C.ar    1  UNL1        0.0951
     30 C          62.2633   84.9970   11.6967 C.ar    1  UNL1        0.1598
     31 F          61.2232   86.0758   11.7639 F       1  UNL1       -0.2026
     32 N          62.0019   84.5858   14.2486 N.pl3   1  UNL1       -0.2166
     33 H          61.0416   84.4128   14.3794 H       1  UNL1        0.1734
     34 S          62.8143   85.1831   15.3591 S.O2    1  UNL1        0.0540
     35 O          63.4315   86.1467   14.3892 O.2     1  UNL1       -0.1545
     36 O          62.1972   84.2196   16.3289 O.2     1  UNL1       -0.1545
     37 C          63.6268   85.7804   16.4695 C.3     1  UNL1        0.1724
     38 C          63.0162   88.2096   17.1601 C.3     1  UNL1        0.0019
     39 C          62.9896   86.7352   17.4352 C.3     1  UNL1        0.0273
@<TRIPOS>BOND
     1    38    39    1
     2    39    37    1
     3    37    34    1
     4    34    35    2
     5    34    36    2
     6    34    32    1
     7    32    24    1
     8    24    25   ar
     9    25    26   ar
    10    26    27   ar
    11    27    28    1
    12    27    29   ar
    13    29    22    1
    14    22    23    2
    15    22     1    1
    16     1     2   ar
    17     2     3   ar
    18     3     4   ar
    19     4     5   ar
    20     5     6   ar
    21     6     7   ar
    22     7    11    1
    23    11    12   ar
    24    12    13   ar
    25    13    14   ar
    26    14    17    1
    27    17    18    1
    28    18    19    1
    29    19    20    1
    30    20    21    1
    31    14    15   ar
    32    15    16   ar
    33     7     8   ar
    34     8     9   ar
    35    29    30   ar
    36    30    31    1
    37    30    24   ar
    38     9     1   ar
    39     9     4    1
    40    16    11   ar
    41    21    17    1
    42    32    33    1
    43     5    10    1
@<TRIPOS>MOLECULE
*****
 39 43 0 0 0
SMALL
GASTEIGER

@<TRIPOS>ATOM
      1 C          63.4240   84.8935   14.4080 C.ar    1  UNL1        0.0611
      2 C          62.8134   84.2058   15.5930 C.ar    1  UNL1        0.1037
      3 N          62.5504   85.2418   16.6454 N.ar    1  UNL1       -0.2269
      4 C          62.9985   86.5698   16.1108 C.ar    1  UNL1        0.1407
      5 N          62.9847   87.9472   16.7046 N.ar    1  UNL1       -0.3374
      6 C          63.5107   89.1093   15.9155 C.ar    1  UNL1        0.0735
      7 C          64.0506   88.8940   14.5327 C.ar    1  UNL1        0.0201
      8 C          64.0645   87.5166   13.9389 C.ar    1  UNL1        0.0047
      9 C          63.5384   86.3545   14.7280 C.ar    1  UNL1        0.0386
     10 H          62.6303   88.0885   17.6121 H       1  UNL1        0.1674
     11 C          64.5767   90.0562   13.7436 C.ar    1  UNL1        0.0399
     12 C          63.9091   90.4557   12.4611 C.ar    1  UNL1        0.1034
     13 N          64.4351   91.6179   11.6720 N.ar    1  UNL1       -0.2121
     14 C          65.6288   92.3806   12.1654 C.ar    1  UNL1        0.2202
     15 N          66.2964   91.9811   13.4479 N.ar    1  UNL1       -0.2121
     16 C          65.7704   90.8189   14.2370 C.ar    1  UNL1        0.1034
     17 N          66.1549   93.5427   11.3764 N.pl3   1  UNL1       -0.2782
     18 C          66.8156   93.4687   10.0318 C.3     1  UNL1        0.0937
     19 C          67.1817   94.8632    9.6178 C.3     1  UNL1        0.0233
     20 C          66.7472   95.7991   10.7066 C.3     1  UNL1        0.0233
     21 C          66.1127   94.9829   11.7935 C.3     1  UNL1        0.0937
     22 C          63.8461   84.2357   13.1278 C.2     1  UNL1        0.2015
     23 O          64.8585   83.1292   13.1513 O.2     1  UNL1       -0.2864
     24 C          61.4564   86.0210   10.5100 C.ar    1  UNL1        0.0920
     25 C          62.0752   85.5820    9.2160 C.ar    1  UNL1        0.0204
     26 C          63.2843   84.6943    9.2260 C.ar    1  UNL1        0.0312
     27 C          63.8746   84.2455   10.5298 C.ar    1  UNL1        0.1454
     28 F          65.0837   83.3578   10.5397 F       1  UNL1       -0.2040
     29 C          63.2558   84.6845   11.8238 C.ar    1  UNL1        0.0951
     30 C          62.0468   85.5722   11.8139 C.ar    1  UNL1        0.1598
     31 F          61.4280   86.0111   13.1079 F       1  UNL1       -0.2026
     32 N          60.2474   86.9087   10.5001 N.pl3   1  UNL1       -0.2166
     33 H          59.5326   86.7743   11.1636 H       1  UNL1        0.1734
     34 S          60.1274   88.0011    9.4793 S.O2    1  UNL1        0.0540
     35 O          59.1776   87.1545    8.6849 O.2     1  UNL1       -0.1545
     36 O          61.0771   88.8478   10.2737 O.2     1  UNL1       -0.1545
     37 C          60.0075   89.0936    8.4585 C.3     1  UNL1        0.1724
     38 C          59.2884   89.8865    6.0911 C.3     1  UNL1        0.0019
     39 C          59.3149   88.8289    7.1545 C.3     1  UNL1        0.0273
@<TRIPOS>BOND
     1    38    39    1
     2    39    37    1
     3    37    34    1
     4    34    35    2
     5    34    36    2
     6    34    32    1
     7    32    24    1
     8    24    25   ar
     9    25    26   ar
    10    26    27   ar
    11    27    28    1
    12    27    29   ar
    13    29    22    1
    14    22    23    2
    15    22     1    1
    16     1     2   ar
    17     2     3   ar
    18     3     4   ar
    19     4     5   ar
    20     5     6   ar
    21     6     7   ar
    22     7    11    1
    23    11    12   ar
    24    12    13   ar
    25    13    14   ar
    26    14    17    1
    27    17    18    1
    28    18    19    1
    29    19    20    1
    30    20    21    1
    31    14    15   ar
    32    15    16   ar
    33     7     8   ar
    34     8     9   ar
    35    29    30   ar
    36    30    31    1
    37    30    24   ar
    38     9     1   ar
    39     9     4    1
    40    16    11   ar
    41    21    17    1
    42    32    33    1
    43     5    10    1
