@<TRIPOS>MOLECULE
*****
 23 25 0 0 0
SMALL
GASTEIGER

@<TRIPOS>ATOM
      1 C          62.1937   86.2956   10.5610 C.ar    1  UNL1       -0.0144
      2 C          62.4984   87.5007   11.4005 C.ar    1  UNL1        0.0051
      3 S          61.6691   88.6421   10.8912 S.2     1  UNL1       -0.0915
      4 C          60.8518   88.1424    9.7370 C.ar    1  UNL1        0.0288
      5 C          59.8542   88.8206    8.8454 C.ar    1  UNL1        0.0065
      6 C          59.1809   88.0485    7.7497 C.ar    1  UNL1        0.0005
      7 C          59.5052   86.5983    7.5456 C.ar    1  UNL1        0.0000
      8 C          60.5027   85.9201    8.4371 C.ar    1  UNL1        0.0002
      9 C          61.1760   86.6921    9.5328 C.ar    1  UNL1        0.0025
     10 C          62.8002   84.9331   10.7213 C.3     1  UNL1        0.0627
     11 C          63.5886   84.3261    9.5987 C.3     1  UNL1        0.0110
     12 C          62.2843   80.4259   13.2550 C.3     1  UNL1        0.0311
     13 C          62.3605   81.9239   13.2711 C.ar    1  UNL1       -0.0191
     14 C          62.2549   82.6662   14.5702 C.ar    1  UNL1        0.0164
     15 C          62.3311   84.1642   14.5864 C.ar    1  UNL1        0.0981
     16 N          62.5128   84.9198   13.3034 N.ar    1  UNL1       -0.2479
     17 C          62.6185   84.1774   12.0042 C.ar    1  UNL1        0.0624
     18 C          62.5423   82.6795   11.9881 C.ar    1  UNL1        0.0108
     19 C          63.4631   87.5549   12.5479 C.3     1  UNL1        0.0499
     20 C          63.7092   88.8518   13.2602 C.3     1  UNL1        0.0774
     21 N          63.7491   88.8883   14.7592 N.3     1  UNL1       -0.2700
     22 C          63.8978   87.6142   15.5368 C.3     1  UNL1        0.0897
     23 C          63.6402   90.1989   15.4807 C.3     1  UNL1        0.0897
@<TRIPOS>BOND
     1    12    13    1
     2    13    14   ar
     3    14    15   ar
     4    15    16   ar
     5    16    17   ar
     6    17    10    1
     7    10    11    1
     8    10     1    1
     9     1     2   ar
    10     2    19    1
    11    19    20    1
    12    20    21    1
    13    21    22    1
    14    21    23    1
    15     2     3   ar
    16     3     4   ar
    17     4     5   ar
    18     5     6   ar
    19     6     7   ar
    20     7     8   ar
    21     8     9   ar
    22    17    18   ar
    23    18    13   ar
    24     9     1   ar
    25     9     4   ar
@<TRIPOS>MOLECULE
*****
 23 25 0 0 0
SMALL
GASTEIGER

@<TRIPOS>ATOM
      1 C          62.9959   85.2622   12.1498 C.ar    1  UNL1       -0.0144
      2 C          63.6061   85.9563   13.3312 C.ar    1  UNL1        0.0051
      3 S          63.9364   84.9160   14.3602 S.2     1  UNL1       -0.0915
      4 C          63.5303   83.5790   13.8146 C.ar    1  UNL1        0.0288
      5 C          63.6148   82.1944   14.3853 C.ar    1  UNL1        0.0065
      6 C          63.1179   81.0238   13.5899 C.ar    1  UNL1        0.0005
      7 C          62.5367   81.2378   12.2237 C.ar    1  UNL1        0.0000
      8 C          62.4522   82.6224   11.6530 C.ar    1  UNL1        0.0002
      9 C          62.9491   83.7930   12.4485 C.ar    1  UNL1        0.0025
     10 C          62.5167   85.9216   10.8906 C.3     1  UNL1        0.0627
     11 C          62.6718   85.2229    9.5722 C.3     1  UNL1        0.0110
     12 C          62.7910   91.0537   10.1252 C.3     1  UNL1        0.0311
     13 C          62.0194   89.8455   10.5669 C.ar    1  UNL1       -0.0191
     14 C          60.6135   89.9954   11.0676 C.ar    1  UNL1        0.0164
     15 C          59.8418   88.7873   11.5093 C.ar    1  UNL1        0.0981
     16 N          60.4763   87.4294   11.4503 N.ar    1  UNL1       -0.2479
     17 C          61.8823   87.2795   10.9496 C.ar    1  UNL1        0.0624
     18 C          62.6539   88.4876   10.5079 C.ar    1  UNL1        0.0108
     19 C          63.8442   87.4316   13.4610 C.3     1  UNL1        0.0499
     20 C          64.2360   88.0143   14.7865 C.3     1  UNL1        0.0774
     21 N          63.5935   89.2813   15.2681 N.3     1  UNL1       -0.2700
     22 C          63.0890   89.3777   16.6774 C.3     1  UNL1        0.0897
     23 C          63.4556   90.4519   14.3404 C.3     1  UNL1        0.0897
@<TRIPOS>BOND
     1    12    13    1
     2    13    14   ar
     3    14    15   ar
     4    15    16   ar
     5    16    17   ar
     6    17    10    1
     7    10    11    1
     8    10     1    1
     9     1     2   ar
    10     2    19    1
    11    19    20    1
    12    20    21    1
    13    21    22    1
    14    21    23    1
    15     2     3   ar
    16     3     4   ar
    17     4     5   ar
    18     5     6   ar
    19     6     7   ar
    20     7     8   ar
    21     8     9   ar
    22    17    18   ar
    23    18    13   ar
    24     9     1   ar
    25     9     4   ar
@<TRIPOS>MOLECULE
*****
 23 25 0 0 0
SMALL
GASTEIGER

@<TRIPOS>ATOM
      1 C          63.8257   90.7950   13.3785 C.ar    1  UNL1       -0.0144
      2 C          64.8016   91.5659   12.5398 C.ar    1  UNL1        0.0051
      3 S          64.2778   91.6020   11.1347 S.2     1  UNL1       -0.0915
      4 C          62.9782   90.8536   11.1049 C.ar    1  UNL1        0.0288
      5 C          62.0132   90.5618    9.9943 C.ar    1  UNL1        0.0065
      6 C          60.7688   89.7712   10.2704 C.ar    1  UNL1        0.0005
      7 C          60.4893   89.2724   11.6572 C.ar    1  UNL1        0.0000
      8 C          61.4543   89.5642   12.7678 C.ar    1  UNL1        0.0002
      9 C          62.6988   90.3548   12.4917 C.ar    1  UNL1        0.0025
     10 C          63.9541   90.5137   14.8462 C.3     1  UNL1        0.0627
     11 C          64.2367   91.6342   15.8027 C.3     1  UNL1        0.0110
     12 C          64.8662   85.4212   14.3626 C.3     1  UNL1        0.0311
     13 C          64.2559   86.5658   15.1159 C.ar    1  UNL1       -0.0191
     14 C          63.4915   86.3088   16.3806 C.ar    1  UNL1        0.0164
     15 C          62.8812   87.4534   17.1339 C.ar    1  UNL1        0.0981
     16 N          63.0354   88.8550   16.6224 N.ar    1  UNL1       -0.2479
     17 C          63.7999   89.1121   15.3576 C.ar    1  UNL1        0.0624
     18 C          64.4101   87.9675   14.6044 C.ar    1  UNL1        0.0108
     19 C          66.0772   92.1908   13.0216 C.3     1  UNL1        0.0499
     20 C          67.1624   92.5302   12.0432 C.3     1  UNL1        0.0774
     21 N          67.0004   93.7012   11.1200 N.3     1  UNL1       -0.2700
     22 C          66.2663   94.9249   11.5823 C.3     1  UNL1        0.0897
     23 C          67.5725   93.6486    9.7344 C.3     1  UNL1        0.0897
@<TRIPOS>BOND
     1    12    13    1
     2    13    14   ar
     3    14    15   ar
     4    15    16   ar
     5    16    17   ar
     6    17    10    1
     7    10    11    1
     8    10     1    1
     9     1     2   ar
    10     2    19    1
    11    19    20    1
    12    20    21    1
    13    21    22    1
    14    21    23    1
    15     2     3   ar
    16     3     4   ar
    17     4     5   ar
    18     5     6   ar
    19     6     7   ar
    20     7     8   ar
    21     8     9   ar
    22    17    18   ar
    23    18    13   ar
    24     9     1   ar
    25     9     4   ar
@<TRIPOS>MOLECULE
*****
 23 25 0 0 0
SMALL
GASTEIGER

@<TRIPOS>ATOM
      1 C          63.0472   84.4792   11.9915 C.ar    1  UNL1       -0.0144
      2 C          63.4667   85.3009   13.1742 C.ar    1  UNL1        0.0051
      3 S          63.6122   84.3805   14.3497 S.2     1  UNL1       -0.0915
      4 C          63.2825   82.9901   13.8935 C.ar    1  UNL1        0.0288
      5 C          63.2552   81.6764   14.6169 C.ar    1  UNL1        0.0065
      6 C          62.8787   80.4237   13.8828 C.ar    1  UNL1        0.0005
      7 C          62.5295   80.4847   12.4253 C.ar    1  UNL1        0.0000
      8 C          62.5568   81.7984   11.7019 C.ar    1  UNL1        0.0002
      9 C          62.9333   83.0511   12.4360 C.ar    1  UNL1        0.0025
     10 C          62.7872   84.9951   10.6072 C.3     1  UNL1        0.0627
     11 C          63.6115   84.5009    9.4554 C.3     1  UNL1        0.0110
     12 C          59.1130   87.0289    7.5472 C.3     1  UNL1        0.0311
     13 C          59.8658   87.0221    8.8445 C.ar    1  UNL1       -0.0191
     14 C          59.5344   88.0253    9.9092 C.ar    1  UNL1        0.0164
     15 C          60.2873   88.0186   11.2066 C.ar    1  UNL1        0.0981
     16 N          61.3715   87.0085   11.4392 N.ar    1  UNL1       -0.2479
     17 C          61.7030   86.0051   10.3745 C.ar    1  UNL1        0.0624
     18 C          60.9501   86.0120    9.0771 C.ar    1  UNL1        0.0108
     19 C          63.6999   86.7826   13.1804 C.3     1  UNL1        0.0499
     20 C          64.1345   87.4682   14.4417 C.3     1  UNL1        0.0774
     21 N          63.7158   88.8837   14.7085 N.3     1  UNL1       -0.2700
     22 C          63.3651   89.3120   16.1027 C.3     1  UNL1        0.0897
     23 C          63.6478   89.8708   13.5812 C.3     1  UNL1        0.0897
@<TRIPOS>BOND
     1    12    13    1
     2    13    14   ar
     3    14    15   ar
     4    15    16   ar
     5    16    17   ar
     6    17    10    1
     7    10    11    1
     8    10     1    1
     9     1     2   ar
    10     2    19    1
    11    19    20    1
    12    20    21    1
    13    21    22    1
    14    21    23    1
    15     2     3   ar
    16     3     4   ar
    17     4     5   ar
    18     5     6   ar
    19     6     7   ar
    20     7     8   ar
    21     8     9   ar
    22    17    18   ar
    23    18    13   ar
    24     9     1   ar
    25     9     4   ar
@<TRIPOS>MOLECULE
*****
 23 25 0 0 0
SMALL
GASTEIGER

@<TRIPOS>ATOM
      1 C          63.6414   89.4563   12.7156 C.ar    1  UNL1       -0.0144
      2 C          63.5230   90.7029   11.8900 C.ar    1  UNL1        0.0051
      3 S          62.7717   90.3599   10.6379 S.2     1  UNL1       -0.0915
      4 C          62.4258   88.9013   10.6896 C.ar    1  UNL1        0.0288
      5 C          61.6908   88.0095    9.7334 C.ar    1  UNL1        0.0065
      6 C          61.4933   86.5592   10.0613 C.ar    1  UNL1        0.0005
      7 C          62.0309   86.0007   11.3455 C.ar    1  UNL1        0.0000
      8 C          62.7659   86.8925   12.3017 C.ar    1  UNL1        0.0002
      9 C          62.9633   88.3428   11.9738 C.ar    1  UNL1        0.0025
     10 C          64.3190   89.3429   14.0491 C.3     1  UNL1        0.0627
     11 C          65.3502   90.3541   14.4548 C.3     1  UNL1        0.0110
     12 C          64.4948   84.2968   15.2760 C.3     1  UNL1        0.0311
     13 C          64.0535   85.6955   15.5904 C.ar    1  UNL1       -0.0191
     14 C          63.2587   85.9698   16.8325 C.ar    1  UNL1        0.0164
     15 C          62.8173   87.3685   17.1469 C.ar    1  UNL1        0.0981
     16 N          63.1708   88.4929   16.2191 N.ar    1  UNL1       -0.2479
     17 C          63.9656   88.2186   14.9768 C.ar    1  UNL1        0.0624
     18 C          64.4070   86.8198   14.6625 C.ar    1  UNL1        0.0108
     19 C          64.0614   92.0552   12.2528 C.3     1  UNL1        0.0499
     20 C          65.2903   92.5805   11.5719 C.3     1  UNL1        0.0774
     21 N          66.0242   93.7542   12.1498 N.3     1  UNL1       -0.2700
     22 C          66.5156   93.7079   13.5663 C.3     1  UNL1        0.0897
     23 C          66.2667   94.9740   11.3112 C.3     1  UNL1        0.0897
@<TRIPOS>BOND
     1    12    13    1
     2    13    14   ar
     3    14    15   ar
     4    15    16   ar
     5    16    17   ar
     6    17    10    1
     7    10    11    1
     8    10     1    1
     9     1     2   ar
    10     2    19    1
    11    19    20    1
    12    20    21    1
    13    21    22    1
    14    21    23    1
    15     2     3   ar
    16     3     4   ar
    17     4     5   ar
    18     5     6   ar
    19     6     7   ar
    20     7     8   ar
    21     8     9   ar
    22    17    18   ar
    23    18    13   ar
    24     9     1   ar
    25     9     4   ar
@<TRIPOS>MOLECULE
*****
 23 25 0 0 0
SMALL
GASTEIGER

@<TRIPOS>ATOM
      1 C          62.7058   84.2620   13.1103 C.ar    1  UNL1       -0.0144
      2 C          62.3356   83.9424   14.5283 C.ar    1  UNL1        0.0051
      3 S          62.2505   82.4507   14.6601 S.2     1  UNL1       -0.0915
      4 C          62.5682   81.8483   13.3236 C.ar    1  UNL1        0.0288
      5 C          62.6375   80.4251   12.8551 C.ar    1  UNL1        0.0065
      6 C          62.9883   80.1214   11.4287 C.ar    1  UNL1        0.0005
      7 C          63.2697   81.2409   10.4708 C.ar    1  UNL1        0.0000
      8 C          63.2003   82.6641   10.9393 C.ar    1  UNL1        0.0002
      9 C          62.8495   82.9678   12.3657 C.ar    1  UNL1        0.0025
     10 C          62.8984   85.6349   12.5373 C.3     1  UNL1        0.0627
     11 C          63.8768   86.5806   13.1688 C.3     1  UNL1        0.0110
     12 C          61.9954   85.3693    7.4272 C.3     1  UNL1        0.0311
     13 C          61.6613   85.9293    8.7780 C.ar    1  UNL1       -0.0191
     14 C          60.5416   86.9165    8.9245 C.ar    1  UNL1        0.0164
     15 C          60.2075   87.4766   10.2754 C.ar    1  UNL1        0.0981
     16 N          60.9931   87.0494   11.4796 N.ar    1  UNL1       -0.2479
     17 C          62.1129   86.0621   11.3331 C.ar    1  UNL1        0.0624
     18 C          62.4470   85.5020    9.9823 C.ar    1  UNL1        0.0108
     19 C          62.0930   84.9395   15.6224 C.3     1  UNL1        0.0499
     20 C          63.2531   85.6050   16.3014 C.3     1  UNL1        0.0774
     21 N          63.0414   86.8683   17.0819 N.3     1  UNL1       -0.2700
     22 C          62.6334   86.7996   18.5237 C.3     1  UNL1        0.0897
     23 C          63.2376   88.2003   16.4206 C.3     1  UNL1        0.0897
@<TRIPOS>BOND
     1    12    13    1
     2    13    14   ar
     3    14    15   ar
     4    15    16   ar
     5    16    17   ar
     6    17    10    1
     7    10    11    1
     8    10     1    1
     9     1     2   ar
    10     2    19    1
    11    19    20    1
    12    20    21    1
    13    21    22    1
    14    21    23    1
    15     2     3   ar
    16     3     4   ar
    17     4     5   ar
    18     5     6   ar
    19     6     7   ar
    20     7     8   ar
    21     8     9   ar
    22    17    18   ar
    23    18    13   ar
    24     9     1   ar
    25     9     4   ar
@<TRIPOS>MOLECULE
*****
 23 25 0 0 0
SMALL
GASTEIGER

@<TRIPOS>ATOM
      1 C          63.4875   89.4114   12.4852 C.ar    1  UNL1       -0.0144
      2 C          63.5354   90.6983   11.7161 C.ar    1  UNL1        0.0051
      3 S          62.7477   90.5131   10.4531 S.2     1  UNL1       -0.0915
      4 C          62.2130   89.1116   10.4415 C.ar    1  UNL1        0.0288
      5 C          61.3689   88.3676    9.4497 C.ar    1  UNL1        0.0065
      6 C          60.9820   86.9426    9.7137 C.ar    1  UNL1        0.0005
      7 C          61.4392   86.2617   10.9697 C.ar    1  UNL1        0.0000
      8 C          62.2833   87.0058   11.9615 C.ar    1  UNL1        0.0002
      9 C          62.6702   88.4307   11.6975 C.ar    1  UNL1        0.0025
     10 C          64.1419   89.1507   13.8095 C.3     1  UNL1        0.0627
     11 C          64.2618   87.7465   14.3234 C.3     1  UNL1        0.0110
     12 C          68.0992   92.2166   15.2025 C.3     1  UNL1        0.0311
     13 C          66.6551   91.8271   15.3164 C.ar    1  UNL1       -0.0191
     14 C          65.7457   92.5810   16.2408 C.ar    1  UNL1        0.0164
     15 C          64.3016   92.1915   16.3547 C.ar    1  UNL1        0.0981
     16 N          63.7671   91.0481   15.5443 N.ar    1  UNL1       -0.2479
     17 C          64.6765   90.2941   14.6199 C.ar    1  UNL1        0.0624
     18 C          66.1206   90.6836   14.5059 C.ar    1  UNL1        0.0108
     19 C          64.2461   91.9506   12.1363 C.3     1  UNL1        0.0499
     20 C          65.3228   92.5295   11.2672 C.3     1  UNL1        0.0774
     21 N          65.7987   93.9333   11.4973 N.3     1  UNL1       -0.2700
     22 C          65.7170   94.9437   10.3916 C.3     1  UNL1        0.0897
     23 C          66.3563   94.3267   12.8331 C.3     1  UNL1        0.0897
@<TRIPOS>BOND
     1    12    13    1
     2    13    14   ar
     3    14    15   ar
     4    15    16   ar
     5    16    17   ar
     6    17    10    1
     7    10    11    1
     8    10     1    1
     9     1     2   ar
    10     2    19    1
    11    19    20    1
    12    20    21    1
    13    21    22    1
    14    21    23    1
    15     2     3   ar
    16     3     4   ar
    17     4     5   ar
    18     5     6   ar
    19     6     7   ar
    20     7     8   ar
    21     8     9   ar
    22    17    18   ar
    23    18    13   ar
    24     9     1   ar
    25     9     4   ar
@<TRIPOS>MOLECULE
*****
 23 25 0 0 0
SMALL
GASTEIGER

@<TRIPOS>ATOM
      1 C          63.0308   88.0974   12.0536 C.ar    1  UNL1       -0.0144
      2 C          63.7120   88.8720   13.1426 C.ar    1  UNL1        0.0051
      3 S          64.1555   87.8997   14.1951 S.2     1  UNL1       -0.0915
      4 C          63.7485   86.5241   13.7566 C.ar    1  UNL1        0.0288
      5 C          63.9211   85.1762   14.3915 C.ar    1  UNL1        0.0065
      6 C          63.3985   83.9504   13.7028 C.ar    1  UNL1        0.0005
      7 C          62.7033   84.0726   12.3793 C.ar    1  UNL1        0.0000
      8 C          62.5307   85.4206   11.7444 C.ar    1  UNL1        0.0002
      9 C          63.0533   86.6463   12.4330 C.ar    1  UNL1        0.0025
     10 C          62.4321   88.6728   10.8044 C.3     1  UNL1        0.0627
     11 C          62.5583   90.1401   10.5191 C.3     1  UNL1        0.0110
     12 C          62.5085   84.8838    7.2495 C.3     1  UNL1        0.0311
     13 C          61.7453   85.8866    8.0630 C.ar    1  UNL1       -0.0191
     14 C          60.2570   85.9977    7.9126 C.ar    1  UNL1        0.0164
     15 C          59.4937   87.0005    8.7261 C.ar    1  UNL1        0.0981
     16 N          60.2187   87.8921    9.6900 N.ar    1  UNL1       -0.2479
     17 C          61.7071   87.7811    9.8405 C.ar    1  UNL1        0.0624
     18 C          62.4703   86.7783    9.0269 C.ar    1  UNL1        0.0108
     19 C          63.9141   90.3580   13.1736 C.3     1  UNL1        0.0499
     20 C          64.5377   91.0051   14.3745 C.3     1  UNL1        0.0774
     21 N          65.4979   92.1441   14.1989 N.3     1  UNL1       -0.2700
     22 C          65.7283   92.7275   12.8363 C.3     1  UNL1        0.0897
     23 C          66.2276   92.6997   15.3858 C.3     1  UNL1        0.0897
@<TRIPOS>BOND
     1    12    13    1
     2    13    14   ar
     3    14    15   ar
     4    15    16   ar
     5    16    17   ar
     6    17    10    1
     7    10    11    1
     8    10     1    1
     9     1     2   ar
    10     2    19    1
    11    19    20    1
    12    20    21    1
    13    21    22    1
    14    21    23    1
    15     2     3   ar
    16     3     4   ar
    17     4     5   ar
    18     5     6   ar
    19     6     7   ar
    20     7     8   ar
    21     8     9   ar
    22    17    18   ar
    23    18    13   ar
    24     9     1   ar
    25     9     4   ar
@<TRIPOS>MOLECULE
*****
 23 25 0 0 0
SMALL
GASTEIGER

@<TRIPOS>ATOM
      1 C          63.9362   89.5086   13.7495 C.ar    1  UNL1       -0.0144
      2 C          64.7284   90.7739   13.8962 C.ar    1  UNL1        0.0051
      3 S          64.5473   91.5817   12.6454 S.2     1  UNL1       -0.0915
      4 C          63.6432   90.8157   11.7257 C.ar    1  UNL1        0.0288
      5 C          63.1151   91.1194   10.3550 C.ar    1  UNL1        0.0065
      6 C          62.2093   90.1418    9.6667 C.ar    1  UNL1        0.0005
      7 C          61.8316   88.8606   10.3491 C.ar    1  UNL1        0.0000
      8 C          62.3597   88.5569   11.7198 C.ar    1  UNL1        0.0002
      9 C          63.2655   89.5345   12.4081 C.ar    1  UNL1        0.0025
     10 C          63.8328   88.4103   14.7659 C.3     1  UNL1        0.0627
     11 C          63.4222   88.7271   16.1735 C.3     1  UNL1        0.0110
     12 C          62.7459   84.1839   11.9451 C.3     1  UNL1        0.0311
     13 C          63.5966   84.8820   12.9645 C.ar    1  UNL1       -0.0191
     14 C          64.7545   84.1648   13.5928 C.ar    1  UNL1        0.0164
     15 C          65.6053   84.8628   14.6122 C.ar    1  UNL1        0.0981
     16 N          65.2980   86.2779   15.0032 N.ar    1  UNL1       -0.2479
     17 C          64.1400   86.9952   14.3749 C.ar    1  UNL1        0.0624
     18 C          63.2893   86.2971   13.3555 C.ar    1  UNL1        0.0108
     19 C          65.5563   91.1630   15.0850 C.3     1  UNL1        0.0499
     20 C          66.2654   92.4846   15.1050 C.3     1  UNL1        0.0774
     21 N          67.7230   92.5591   14.7591 N.3     1  UNL1       -0.2700
     22 C          68.6715   93.2916   15.6614 C.3     1  UNL1        0.0897
     23 C          68.2323   91.9010   13.5111 C.3     1  UNL1        0.0897
@<TRIPOS>BOND
     1    12    13    1
     2    13    14   ar
     3    14    15   ar
     4    15    16   ar
     5    16    17   ar
     6    17    10    1
     7    10    11    1
     8    10     1    1
     9     1     2   ar
    10     2    19    1
    11    19    20    1
    12    20    21    1
    13    21    22    1
    14    21    23    1
    15     2     3   ar
    16     3     4   ar
    17     4     5   ar
    18     5     6   ar
    19     6     7   ar
    20     7     8   ar
    21     8     9   ar
    22    17    18   ar
    23    18    13   ar
    24     9     1   ar
    25     9     4   ar
