@<TRIPOS>MOLECULE
*****
 28 30 0 0 0
SMALL
GASTEIGER

@<TRIPOS>ATOM
      1 N          65.6334   92.3807   12.4592 N.pl3   1  UNL1       -0.2872
      2 N          62.0229   89.7678   11.8369 N.3     1  UNL1       -0.2678
      3 C          62.4846   90.6824   10.7414 C.3     1  UNL1        0.0741
      4 C          63.6881   91.5534   10.9488 C.3     1  UNL1        0.0375
      5 C          64.4299   91.5097   12.2518 C.3     1  UNL1        0.0800
      6 C          63.9683   90.5951   13.3473 C.3     1  UNL1        0.0375
      7 C          62.7648   89.7241   13.1399 C.3     1  UNL1        0.0741
      8 C          60.8195   88.8968   11.6295 C.3     1  UNL1        0.1157
      9 C          59.4833   89.3250   12.1599 C.3     1  UNL1        0.0254
     10 C          60.9084   87.5786    9.3924 C.3     1  UNL1        0.0737
     11 C          60.9521   87.5976   10.8917 C.2     1  UNL1        0.1654
     12 O          61.1285   86.3172   11.6531 O.2     1  UNL1       -0.2946
     13 C          66.1109   93.2757   11.3543 C.ar    1  UNL1        0.0515
     14 C          67.1224   92.7740   10.3667 C.ar    1  UNL1        0.0148
     15 C          67.5999   93.6690    9.2618 C.ar    1  UNL1        0.0051
     16 C          67.0659   95.0658    9.1444 C.ar    1  UNL1        0.0715
     17 C          66.0544   95.5676   10.1318 C.ar    1  UNL1        0.0051
     18 C          65.5769   94.6725   11.2368 C.ar    1  UNL1        0.0148
     19 C          67.5434   95.9609    8.0394 C.3     1  UNL1        0.4186
     20 F          68.0209   96.8559    6.9344 F       1  UNL1       -0.1659
     21 F          68.2468   96.8252    9.0434 F       1  UNL1       -0.1659
     22 F          66.8400   95.0965    7.0353 F       1  UNL1       -0.1659
     23 C          66.3594   92.3567   13.7715 C.ar    1  UNL1        0.0710
     24 C          67.8212   92.0229   13.8140 C.ar    1  UNL1        0.0180
     25 C          68.5472   91.9988   15.1264 C.ar    1  UNL1        0.0220
     26 C          67.8114   92.3086   16.3963 C.ar    1  UNL1        0.0990
     27 N          66.3497   92.6423   16.3538 N.ar    1  UNL1       -0.2410
     28 C          65.6236   92.6664   15.0415 C.ar    1  UNL1        0.1136
@<TRIPOS>BOND
     1    10    11    1
     2    11    12    2
     3    11     8    1
     4     8     9    1
     5     8     2    1
     6     2     3    1
     7     3     4    1
     8     4     5    1
     9     5     1    1
    10     1    13    1
    11    13    14   ar
    12    14    15   ar
    13    15    16   ar
    14    16    19    1
    15    19    20    1
    16    19    21    1
    17    19    22    1
    18    16    17   ar
    19    17    18   ar
    20     1    23    1
    21    23    24   ar
    22    24    25   ar
    23    25    26   ar
    24    26    27   ar
    25    27    28   ar
    26     5     6    1
    27     6     7    1
    28     7     2    1
    29    18    13   ar
    30    28    23   ar
@<TRIPOS>MOLECULE
*****
 28 30 0 0 0
SMALL
GASTEIGER

@<TRIPOS>ATOM
      1 N          62.3153   86.4810   11.5649 N.pl3   1  UNL1       -0.2872
      2 N          64.2366   89.9571   13.6803 N.3     1  UNL1       -0.2678
      3 C          64.3692   88.5720   14.2405 C.3     1  UNL1        0.0741
      4 C          63.7288   87.4133   13.5353 C.3     1  UNL1        0.0375
      5 C          62.9557   87.6397   12.2701 C.3     1  UNL1        0.0800
      6 C          62.8230   89.0248   11.7099 C.3     1  UNL1        0.0375
      7 C          63.4635   90.1835   12.4151 C.3     1  UNL1        0.0741
      8 C          64.8770   91.1158   14.3855 C.3     1  UNL1        0.1157
      9 C          64.5232   91.4139   15.8123 C.3     1  UNL1        0.0254
     10 C          67.3409   91.7577   13.8688 C.3     1  UNL1        0.0737
     11 C          65.8712   91.9764   13.6638 C.2     1  UNL1        0.1654
     12 O          65.3956   93.0558   12.7370 O.2     1  UNL1       -0.2946
     13 C          62.4912   85.0894   12.0964 C.ar    1  UNL1        0.0515
     14 C          62.2642   84.8083   13.5523 C.ar    1  UNL1        0.0148
     15 C          62.4401   83.4168   14.0839 C.ar    1  UNL1        0.0051
     16 C          62.8429   82.3062   13.1595 C.ar    1  UNL1        0.0715
     17 C          63.0698   82.5872   11.7037 C.ar    1  UNL1        0.0051
     18 C          62.8940   83.9788   11.1721 C.ar    1  UNL1        0.0148
     19 C          63.0188   80.9146   13.6911 C.3     1  UNL1        0.4186
     20 F          63.1946   79.5230   14.2227 F       1  UNL1       -0.1659
     21 F          64.4832   80.9780   13.3729 F       1  UNL1       -0.1659
     22 F          61.5543   80.8511   14.0093 F       1  UNL1       -0.1659
     23 C          61.4990   86.7138   10.3282 C.ar    1  UNL1        0.0710
     24 C          61.9009   86.0735    9.0327 C.ar    1  UNL1        0.0180
     25 C          61.0845   86.3064    7.7960 C.ar    1  UNL1        0.0220
     26 C          59.8663   87.1795    7.8549 C.ar    1  UNL1        0.0990
     27 N          59.4644   87.8198    9.1504 N.ar    1  UNL1       -0.2410
     28 C          60.2807   87.5870   10.3871 C.ar    1  UNL1        0.1136
@<TRIPOS>BOND
     1    10    11    1
     2    11    12    2
     3    11     8    1
     4     8     9    1
     5     8     2    1
     6     2     3    1
     7     3     4    1
     8     4     5    1
     9     5     1    1
    10     1    13    1
    11    13    14   ar
    12    14    15   ar
    13    15    16   ar
    14    16    19    1
    15    19    20    1
    16    19    21    1
    17    19    22    1
    18    16    17   ar
    19    17    18   ar
    20     1    23    1
    21    23    24   ar
    22    24    25   ar
    23    25    26   ar
    24    26    27   ar
    25    27    28   ar
    26     5     6    1
    27     6     7    1
    28     7     2    1
    29    18    13   ar
    30    28    23   ar
@<TRIPOS>MOLECULE
*****
 28 30 0 0 0
SMALL
GASTEIGER

@<TRIPOS>ATOM
      1 N          62.1400   86.6309   11.2691 N.pl3   1  UNL1       -0.2872
      2 N          64.1189   90.2887   12.9879 N.3     1  UNL1       -0.2678
      3 C          63.3466   90.3863   11.7057 C.3     1  UNL1        0.0741
      4 C          62.6870   89.1671   11.1328 C.3     1  UNL1        0.0375
      5 C          62.7996   87.8502   11.8420 C.3     1  UNL1        0.0800
      6 C          63.5719   87.7526   13.1242 C.3     1  UNL1        0.0375
      7 C          64.2316   88.9719   13.6971 C.3     1  UNL1        0.0741
      8 C          64.7786   91.5080   13.5608 C.3     1  UNL1        0.1157
      9 C          65.4171   92.5136   12.6492 C.3     1  UNL1        0.0254
     10 C          66.0360   92.2513   15.7093 C.3     1  UNL1        0.0737
     11 C          64.7997   91.7217   15.0453 C.2     1  UNL1        0.1654
     12 O          63.5843   91.4059   15.8659 O.2     1  UNL1       -0.2946
     13 C          62.3955   85.2840   11.8778 C.ar    1  UNL1        0.0515
     14 C          62.8300   84.1394   11.0110 C.ar    1  UNL1        0.0148
     15 C          63.0855   82.7925   11.6197 C.ar    1  UNL1        0.0051
     16 C          62.9065   82.5901   13.0951 C.ar    1  UNL1        0.0715
     17 C          62.4720   83.7346   13.9619 C.ar    1  UNL1        0.0051
     18 C          62.2165   85.0816   13.3533 C.ar    1  UNL1        0.0148
     19 C          63.1620   81.2431   13.7038 C.3     1  UNL1        0.4186
     20 F          63.4176   79.8962   14.3124 F       1  UNL1       -0.1659
     21 F          61.8193   81.2897   14.3707 F       1  UNL1       -0.1659
     22 F          64.5047   81.1965   13.0368 F       1  UNL1       -0.1659
     23 C          61.2248   86.7585   10.0876 C.ar    1  UNL1        0.0710
     24 C          61.5266   86.0134    8.8212 C.ar    1  UNL1        0.0180
     25 C          60.6114   86.1411    7.6396 C.ar    1  UNL1        0.0220
     26 C          59.3944   87.0138    7.7244 C.ar    1  UNL1        0.0990
     27 N          59.0926   87.7589    8.9907 N.ar    1  UNL1       -0.2410
     28 C          60.0078   87.6313   10.1723 C.ar    1  UNL1        0.1136
@<TRIPOS>BOND
     1    10    11    1
     2    11    12    2
     3    11     8    1
     4     8     9    1
     5     8     2    1
     6     2     3    1
     7     3     4    1
     8     4     5    1
     9     5     1    1
    10     1    13    1
    11    13    14   ar
    12    14    15   ar
    13    15    16   ar
    14    16    19    1
    15    19    20    1
    16    19    21    1
    17    19    22    1
    18    16    17   ar
    19    17    18   ar
    20     1    23    1
    21    23    24   ar
    22    24    25   ar
    23    25    26   ar
    24    26    27   ar
    25    27    28   ar
    26     5     6    1
    27     6     7    1
    28     7     2    1
    29    18    13   ar
    30    28    23   ar
@<TRIPOS>MOLECULE
*****
 28 30 0 0 0
SMALL
GASTEIGER

@<TRIPOS>ATOM
      1 N          63.0803   88.9726   12.4179 N.pl3   1  UNL1       -0.2872
      2 N          63.6811   84.6238   13.4062 N.3     1  UNL1       -0.2678
      3 C          64.2715   85.6822   14.2899 C.3     1  UNL1        0.0741
      4 C          64.0712   87.1319   13.9605 C.3     1  UNL1        0.0375
      5 C          63.2806   87.5230   12.7474 C.3     1  UNL1        0.0800
      6 C          62.6902   86.4645   11.8636 C.3     1  UNL1        0.0375
      7 C          62.8904   85.0149   12.1931 C.3     1  UNL1        0.0741
      8 C          63.8814   83.1742   13.7357 C.3     1  UNL1        0.1157
      9 C          64.0777   82.7491   15.1607 C.3     1  UNL1        0.0254
     10 C          62.9442   80.9832   12.7005 C.3     1  UNL1        0.0737
     11 C          63.8854   82.1497   12.6401 C.2     1  UNL1        0.1654
     12 O          64.8306   82.2916   11.4840 O.2     1  UNL1       -0.2946
     13 C          64.0060   90.0061   12.9879 C.ar    1  UNL1        0.0515
     14 C          64.3377   91.2352   12.1944 C.ar    1  UNL1        0.0148
     15 C          65.2634   92.2686   12.7644 C.ar    1  UNL1        0.0051
     16 C          65.8575   92.0732   14.1277 C.ar    1  UNL1        0.0715
     17 C          65.5259   90.8442   14.9212 C.ar    1  UNL1        0.0051
     18 C          64.6001   89.8106   14.3512 C.ar    1  UNL1        0.0148
     19 C          66.7833   93.1067   14.6977 C.3     1  UNL1        0.4186
     20 F          67.7090   94.1402   15.2676 F       1  UNL1       -0.1659
     21 F          66.3315   94.0862   13.6554 F       1  UNL1       -0.1659
     22 F          67.2351   92.1272   15.7400 F       1  UNL1       -0.1659
     23 C          61.9543   89.3887   11.5185 C.ar    1  UNL1        0.0710
     24 C          60.7317   90.0364   12.0980 C.ar    1  UNL1        0.0180
     25 C          59.6057   90.4526   11.1985 C.ar    1  UNL1        0.0220
     26 C          59.7023   90.2210    9.7197 C.ar    1  UNL1        0.0990
     27 N          60.9248   89.5732    9.1402 N.ar    1  UNL1       -0.2410
     28 C          62.0508   89.1571   10.0396 C.ar    1  UNL1        0.1136
@<TRIPOS>BOND
     1    10    11    1
     2    11    12    2
     3    11     8    1
     4     8     9    1
     5     8     2    1
     6     2     3    1
     7     3     4    1
     8     4     5    1
     9     5     1    1
    10     1    13    1
    11    13    14   ar
    12    14    15   ar
    13    15    16   ar
    14    16    19    1
    15    19    20    1
    16    19    21    1
    17    19    22    1
    18    16    17   ar
    19    17    18   ar
    20     1    23    1
    21    23    24   ar
    22    24    25   ar
    23    25    26   ar
    24    26    27   ar
    25    27    28   ar
    26     5     6    1
    27     6     7    1
    28     7     2    1
    29    18    13   ar
    30    28    23   ar
@<TRIPOS>MOLECULE
*****
 28 30 0 0 0
SMALL
GASTEIGER

@<TRIPOS>ATOM
      1 N          63.0648   88.9831   12.4327 N.pl3   1  UNL1       -0.2872
      2 N          63.6818   84.6373   13.4241 N.3     1  UNL1       -0.2678
      3 C          64.2579   85.6986   14.3138 C.3     1  UNL1        0.0741
      4 C          64.0523   87.1472   13.9833 C.3     1  UNL1        0.0375
      5 C          63.2704   87.5345   12.7632 C.3     1  UNL1        0.0800
      6 C          62.6943   86.4732   11.8736 C.3     1  UNL1        0.0375
      7 C          62.8999   85.0245   12.2040 C.3     1  UNL1        0.0741
      8 C          63.8874   83.1887   13.7546 C.3     1  UNL1        0.1157
      9 C          64.1216   82.7695   15.1756 C.3     1  UNL1        0.0254
     10 C          62.8701   81.0327   12.7218 C.3     1  UNL1        0.0737
     11 C          63.8588   82.1592   12.6641 C.2     1  UNL1        0.1654
     12 O          64.8190   82.2562   11.5157 O.2     1  UNL1       -0.2946
     13 C          63.9837   90.0209   13.0058 C.ar    1  UNL1        0.0515
     14 C          64.5585   89.8376   14.3792 C.ar    1  UNL1        0.0148
     15 C          65.4774   90.8754   14.9523 C.ar    1  UNL1        0.0051
     16 C          65.8216   92.0966   14.1522 C.ar    1  UNL1        0.0715
     17 C          65.2468   92.2799   12.7789 C.ar    1  UNL1        0.0051
     18 C          64.3279   91.2421   12.2057 C.ar    1  UNL1        0.0148
     19 C          66.7405   93.1344   14.7254 C.3     1  UNL1        0.4186
     20 F          67.6594   94.1722   15.2985 F       1  UNL1       -0.1659
     21 F          67.1337   92.1835   15.8168 F       1  UNL1       -0.1659
     22 F          66.3474   94.0853   13.6340 F       1  UNL1       -0.1659
     23 C          61.9402   89.3939   11.5291 C.ar    1  UNL1        0.0710
     24 C          62.0610   89.2018   10.0464 C.ar    1  UNL1        0.0180
     25 C          60.9364   89.6126    9.1428 C.ar    1  UNL1        0.0220
     26 C          59.6910   90.2156    9.7219 C.ar    1  UNL1        0.0990
     27 N          59.5702   90.4078   11.2046 N.ar    1  UNL1       -0.2410
     28 C          60.6948   89.9970   12.1082 C.ar    1  UNL1        0.1136
@<TRIPOS>BOND
     1    10    11    1
     2    11    12    2
     3    11     8    1
     4     8     9    1
     5     8     2    1
     6     2     3    1
     7     3     4    1
     8     4     5    1
     9     5     1    1
    10     1    13    1
    11    13    14   ar
    12    14    15   ar
    13    15    16   ar
    14    16    19    1
    15    19    20    1
    16    19    21    1
    17    19    22    1
    18    16    17   ar
    19    17    18   ar
    20     1    23    1
    21    23    24   ar
    22    24    25   ar
    23    25    26   ar
    24    26    27   ar
    25    27    28   ar
    26     5     6    1
    27     6     7    1
    28     7     2    1
    29    18    13   ar
    30    28    23   ar
@<TRIPOS>MOLECULE
*****
 28 30 0 0 0
SMALL
GASTEIGER

@<TRIPOS>ATOM
      1 N          62.7265   87.5050   11.9558 N.pl3   1  UNL1       -0.2872
      2 N          64.8104   90.8288   14.1603 N.3     1  UNL1       -0.2678
      3 C          64.1852   91.0926   12.8226 C.3     1  UNL1        0.0741
      4 C          63.4905   89.9847   12.0878 C.3     1  UNL1        0.0375
      5 C          63.4211   88.6129   12.6906 C.3     1  UNL1        0.0800
      6 C          64.0464   88.3491   14.0283 C.3     1  UNL1        0.0375
      7 C          64.7410   89.4571   14.7631 C.3     1  UNL1        0.0741
      8 C          65.5051   91.9367   14.8951 C.3     1  UNL1        0.1157
      9 C          65.1071   92.2679   16.3029 C.3     1  UNL1        0.0254
     10 C          67.8084   92.0020   13.6949 C.3     1  UNL1        0.0737
     11 C          66.5977   92.7134   14.2221 C.2     1  UNL1        0.1654
     12 O          66.4796   94.2017   14.0764 O.2     1  UNL1       -0.2946
     13 C          62.9603   86.0782   12.3551 C.ar    1  UNL1        0.0515
     14 C          63.7698   85.7647   13.5784 C.ar    1  UNL1        0.0148
     15 C          64.0036   84.3379   13.9777 C.ar    1  UNL1        0.0051
     16 C          63.4279   83.2245   13.1537 C.ar    1  UNL1        0.0715
     17 C          62.6184   83.5379   11.9305 C.ar    1  UNL1        0.0051
     18 C          62.3846   84.9648   11.5311 C.ar    1  UNL1        0.0148
     19 C          63.6617   81.7976   13.5531 C.3     1  UNL1        0.4186
     20 F          63.8956   80.3708   13.9524 F       1  UNL1       -0.1659
     21 F          62.5076   81.8756   14.5079 F       1  UNL1       -0.1659
     22 F          64.8159   81.7196   12.5983 F       1  UNL1       -0.1659
     23 C          61.7981   87.8239   10.8217 C.ar    1  UNL1        0.0710
     24 C          61.9117   87.0760    9.5264 C.ar    1  UNL1        0.0180
     25 C          60.9832   87.3949    8.3923 C.ar    1  UNL1        0.0220
     26 C          59.9411   88.4617    8.5534 C.ar    1  UNL1        0.0990
     27 N          59.8275   89.2096    9.8487 N.ar    1  UNL1       -0.2410
     28 C          60.7560   88.8908   10.9828 C.ar    1  UNL1        0.1136
@<TRIPOS>BOND
     1    10    11    1
     2    11    12    2
     3    11     8    1
     4     8     9    1
     5     8     2    1
     6     2     3    1
     7     3     4    1
     8     4     5    1
     9     5     1    1
    10     1    13    1
    11    13    14   ar
    12    14    15   ar
    13    15    16   ar
    14    16    19    1
    15    19    20    1
    16    19    21    1
    17    19    22    1
    18    16    17   ar
    19    17    18   ar
    20     1    23    1
    21    23    24   ar
    22    24    25   ar
    23    25    26   ar
    24    26    27   ar
    25    27    28   ar
    26     5     6    1
    27     6     7    1
    28     7     2    1
    29    18    13   ar
    30    28    23   ar
@<TRIPOS>MOLECULE
*****
 28 30 0 0 0
SMALL
GASTEIGER

@<TRIPOS>ATOM
      1 N          62.8727   87.3587   12.1555 N.pl3   1  UNL1       -0.2872
      2 N          64.8137   90.7586   14.3744 N.3     1  UNL1       -0.2678
      3 C          64.2032   90.9952   13.0249 C.3     1  UNL1        0.0741
      4 C          63.5562   89.8619   12.2853 C.3     1  UNL1        0.0375
      5 C          63.5197   88.4920   12.8951 C.3     1  UNL1        0.0800
      6 C          64.1303   88.2554   14.2446 C.3     1  UNL1        0.0375
      7 C          64.7773   89.3887   14.9842 C.3     1  UNL1        0.0741
      8 C          65.4607   91.8919   15.1140 C.3     1  UNL1        0.1157
      9 C          65.0282   92.2187   16.5126 C.3     1  UNL1        0.0254
     10 C          67.8335   92.0449   14.0668 C.3     1  UNL1        0.0737
     11 C          66.5403   92.6983   14.4551 C.2     1  UNL1        0.1654
     12 O          66.3267   94.1582   14.1844 O.2     1  UNL1       -0.2946
     13 C          61.9862   87.6402   10.9787 C.ar    1  UNL1        0.0515
     14 C          60.9616   88.7331   11.0560 C.ar    1  UNL1        0.0148
     15 C          60.0751   89.0146    9.8792 C.ar    1  UNL1        0.0051
     16 C          60.2130   88.2031    8.6252 C.ar    1  UNL1        0.0715
     17 C          61.2374   87.1102    8.5479 C.ar    1  UNL1        0.0051
     18 C          62.1241   86.8287    9.7247 C.ar    1  UNL1        0.0148
     19 C          59.3263   88.4846    7.4484 C.3     1  UNL1        0.4186
     20 F          58.4397   88.7661    6.2717 F       1  UNL1       -0.1659
     21 F          60.0017   89.8102    7.2567 F       1  UNL1       -0.1659
     22 F          58.6510   87.1591    7.6402 F       1  UNL1       -0.1659
     23 C          63.1123   85.9440   12.5926 C.ar    1  UNL1        0.0710
     24 C          62.5015   84.8085   11.8260 C.ar    1  UNL1        0.0180
     25 C          62.7411   83.3937   12.2631 C.ar    1  UNL1        0.0220
     26 C          63.5914   83.1145   13.4668 C.ar    1  UNL1        0.0990
     27 N          64.2022   84.2500   14.2334 N.ar    1  UNL1       -0.2410
     28 C          63.9626   85.6647   13.7963 C.ar    1  UNL1        0.1136
@<TRIPOS>BOND
     1    10    11    1
     2    11    12    2
     3    11     8    1
     4     8     9    1
     5     8     2    1
     6     2     3    1
     7     3     4    1
     8     4     5    1
     9     5     1    1
    10     1    13    1
    11    13    14   ar
    12    14    15   ar
    13    15    16   ar
    14    16    19    1
    15    19    20    1
    16    19    21    1
    17    19    22    1
    18    16    17   ar
    19    17    18   ar
    20     1    23    1
    21    23    24   ar
    22    24    25   ar
    23    25    26   ar
    24    26    27   ar
    25    27    28   ar
    26     5     6    1
    27     6     7    1
    28     7     2    1
    29    18    13   ar
    30    28    23   ar
@<TRIPOS>MOLECULE
*****
 28 30 0 0 0
SMALL
GASTEIGER

@<TRIPOS>ATOM
      1 N          62.5484   84.5131   12.4071 N.pl3   1  UNL1       -0.2872
      2 N          60.8615   87.6276    9.6316 N.3     1  UNL1       -0.2678
      3 C          60.5743   87.6989   11.1020 C.3     1  UNL1        0.0741
      4 C          61.1366   86.6607   12.0272 C.3     1  UNL1        0.0375
      5 C          61.9861   85.5512   11.4819 C.3     1  UNL1        0.0800
      6 C          62.2734   85.4800   10.0114 C.3     1  UNL1        0.0375
      7 C          61.7111   86.5182    9.0863 C.3     1  UNL1        0.0741
      8 C          60.2992   88.6658    8.7064 C.3     1  UNL1        0.1157
      9 C          60.6629   90.1095    8.8894 C.3     1  UNL1        0.0254
     10 C          59.1904   89.1553    6.4084 C.3     1  UNL1        0.0737
     11 C          59.3732   88.2604    7.5982 C.2     1  UNL1        0.1654
     12 O          58.6301   86.9599    7.6798 O.2     1  UNL1       -0.2946
     13 C          62.6552   83.0862   11.9570 C.ar    1  UNL1        0.0515
     14 C          63.2498   82.7646   10.6180 C.ar    1  UNL1        0.0148
     15 C          63.3566   81.3377   10.1679 C.ar    1  UNL1        0.0051
     16 C          62.8686   80.2324   11.0569 C.ar    1  UNL1        0.0715
     17 C          62.2740   80.5539   12.3958 C.ar    1  UNL1        0.0051
     18 C          62.1672   81.9809   12.8460 C.ar    1  UNL1        0.0148
     19 C          62.9754   78.8054   10.6067 C.3     1  UNL1        0.4186
     20 F          63.0821   77.3786   10.1567 F       1  UNL1       -0.1659
     21 F          63.2333   79.2674    9.2032 F       1  UNL1       -0.1659
     22 F          62.7175   78.3434   12.0103 F       1  UNL1       -0.1659
     23 C          63.0040   84.9017   13.7823 C.ar    1  UNL1        0.0710
     24 C          64.2561   85.7090   13.9574 C.ar    1  UNL1        0.0180
     25 C          64.7117   86.0977   15.3328 C.ar    1  UNL1        0.0220
     26 C          63.9152   85.6791   16.5329 C.ar    1  UNL1        0.0990
     27 N          62.6632   84.8718   16.3578 N.ar    1  UNL1       -0.2410
     28 C          62.2076   84.4831   14.9826 C.ar    1  UNL1        0.1136
@<TRIPOS>BOND
     1    10    11    1
     2    11    12    2
     3    11     8    1
     4     8     9    1
     5     8     2    1
     6     2     3    1
     7     3     4    1
     8     4     5    1
     9     5     1    1
    10     1    13    1
    11    13    14   ar
    12    14    15   ar
    13    15    16   ar
    14    16    19    1
    15    19    20    1
    16    19    21    1
    17    19    22    1
    18    16    17   ar
    19    17    18   ar
    20     1    23    1
    21    23    24   ar
    22    24    25   ar
    23    25    26   ar
    24    26    27   ar
    25    27    28   ar
    26     5     6    1
    27     6     7    1
    28     7     2    1
    29    18    13   ar
    30    28    23   ar
@<TRIPOS>MOLECULE
*****
 28 30 0 0 0
SMALL
GASTEIGER

@<TRIPOS>ATOM
      1 N          62.7349   87.5241   11.8829 N.pl3   1  UNL1       -0.2872
      2 N          63.2888   83.2122   13.0451 N.3     1  UNL1       -0.2678
      3 C          63.7763   84.3022   13.9529 C.3     1  UNL1        0.0741
      4 C          63.5916   85.7395   13.5655 C.3     1  UNL1        0.0375
      5 C          62.9195   86.0868   12.2703 C.3     1  UNL1        0.0800
      6 C          62.4320   84.9968   11.3625 C.3     1  UNL1        0.0375
      7 C          62.6167   83.5595   11.7499 C.3     1  UNL1        0.0741
      8 C          63.4735   81.7749   13.4325 C.3     1  UNL1        0.1157
      9 C          64.8042   81.2985   13.9347 C.3     1  UNL1        0.0254
     10 C          61.0699   81.0495   14.1009 C.3     1  UNL1        0.0737
     11 C          62.3274   80.8140   13.3178 C.2     1  UNL1        0.1654
     12 O          62.4388   79.6176   12.4198 O.2     1  UNL1       -0.2946
     13 C          61.8741   87.8793   10.7069 C.ar    1  UNL1        0.0515
     14 C          60.9941   89.0928   10.7609 C.ar    1  UNL1        0.0148
     15 C          60.1334   89.4480    9.5849 C.ar    1  UNL1        0.0051
     16 C          60.1526   88.5896    8.3549 C.ar    1  UNL1        0.0715
     17 C          61.0326   87.3761    8.3009 C.ar    1  UNL1        0.0051
     18 C          61.8934   87.0209    9.4769 C.ar    1  UNL1        0.0148
     19 C          59.2918   88.9449    7.1789 C.3     1  UNL1        0.4186
     20 F          58.4310   89.3000    6.0030 F       1  UNL1       -0.1659
     21 F          60.1857   90.1109    6.8767 F       1  UNL1       -0.1659
     22 F          58.3979   87.7788    7.4810 F       1  UNL1       -0.1659
     23 C          63.4109   88.6062   12.6714 C.ar    1  UNL1        0.0710
     24 C          64.0323   88.2898   13.9995 C.ar    1  UNL1        0.0180
     25 C          64.7084   89.3721   14.7881 C.ar    1  UNL1        0.0220
     26 C          64.7631   90.7706   14.2485 C.ar    1  UNL1        0.0990
     27 N          64.1417   91.0870   12.9205 N.ar    1  UNL1       -0.2410
     28 C          63.4656   90.0048   12.1319 C.ar    1  UNL1        0.1136
@<TRIPOS>BOND
     1    10    11    1
     2    11    12    2
     3    11     8    1
     4     8     9    1
     5     8     2    1
     6     2     3    1
     7     3     4    1
     8     4     5    1
     9     5     1    1
    10     1    13    1
    11    13    14   ar
    12    14    15   ar
    13    15    16   ar
    14    16    19    1
    15    19    20    1
    16    19    21    1
    17    19    22    1
    18    16    17   ar
    19    17    18   ar
    20     1    23    1
    21    23    24   ar
    22    24    25   ar
    23    25    26   ar
    24    26    27   ar
    25    27    28   ar
    26     5     6    1
    27     6     7    1
    28     7     2    1
    29    18    13   ar
    30    28    23   ar
