@<TRIPOS>MOLECULE
*****
 27 30 0 0 0
SMALL
GASTEIGER

@<TRIPOS>ATOM
      1 C          64.2780   88.5583   14.4085 C.3     1  UNL1        0.0503
      2 C          63.5085   88.4115   13.1293 C.ar    1  UNL1        0.0467
      3 C          63.1171   87.0481   12.6417 C.ar    1  UNL1        0.0866
      4 C          63.3476   85.6767   13.2039 C.ar    1  UNL1        0.2812
      5 O          64.0771   85.3559   14.4747 O.2     1  UNL1       -0.2651
      6 N          62.7205   84.6824   12.2722 N.ar    1  UNL1       -0.2166
      7 N          62.1025   85.4392   11.1341 N.ar    1  UNL1       -0.2886
      8 C          62.3475   86.9014   11.3625 C.ar    1  UNL1        0.0829
      9 C          61.9694   88.1181   10.5709 C.ar    1  UNL1        0.0793
     10 C          62.3608   89.4815   11.0585 C.ar    1  UNL1        0.2625
     11 O          61.9826   90.6983   10.2669 O.2     1  UNL1       -0.2669
     12 N          63.1303   89.6283   12.3376 N.ar    1  UNL1       -0.2932
     13 H          61.6206   85.0455   10.3712 H       1  UNL1        0.1875
     14 C          62.7129   83.1927   12.4476 C.ar    1  UNL1        0.0944
     15 C          62.1227   82.5864   13.6862 C.ar    1  UNL1        0.0200
     16 C          62.1150   81.0967   13.8616 C.ar    1  UNL1        0.0016
     17 C          62.6976   80.2133   12.7985 C.ar    1  UNL1        0.0010
     18 C          63.2878   80.8195   11.5599 C.ar    1  UNL1        0.0129
     19 C          63.2954   82.3093   11.3845 C.ar    1  UNL1        0.0753
     20 CL         63.8856   82.9155   10.1460 Cl      1  UNL1       -0.0807
     21 C          63.5217   90.9918   12.8253 C.3     1  UNL1        0.1544
     22 C          64.8031   91.6161   12.3581 C.ar    1  UNL1        0.0819
     23 C          65.9687   91.7274   13.2958 C.ar    1  UNL1        0.0167
     24 C          67.2501   92.3517   12.8286 C.ar    1  UNL1        0.0029
     25 C          67.3660   92.8647   11.4239 C.ar    1  UNL1        0.0207
     26 C          66.2004   92.7535   10.4863 C.ar    1  UNL1        0.0985
     27 N          64.9190   92.1292   10.9534 N.ar    1  UNL1       -0.2462
@<TRIPOS>BOND
     1     1     2    1
     2     2     3   ar
     3     3     4   ar
     4     4     5    2
     5     4     6   ar
     6     6    14    1
     7    14    15   ar
     8    15    16   ar
     9    16    17   ar
    10    17    18   ar
    11    18    19   ar
    12    19    20    1
    13     6     7   ar
    14     7     8   ar
    15     8     9   ar
    16     9    10   ar
    17    10    11    2
    18    10    12   ar
    19    12    21    1
    20    21    22    1
    21    22    23   ar
    22    23    24   ar
    23    24    25   ar
    24    25    26   ar
    25    26    27   ar
    26    12     2   ar
    27    27    22   ar
    28     8     3   ar
    29    19    14   ar
    30     7    13    1
@<TRIPOS>MOLECULE
*****
 27 30 0 0 0
SMALL
GASTEIGER

@<TRIPOS>ATOM
      1 C          62.1421   88.7378   10.9181 C.3     1  UNL1        0.0503
      2 C          62.9080   88.4204   12.1682 C.ar    1  UNL1        0.0467
      3 C          63.1248   86.9924   12.5729 C.ar    1  UNL1        0.0866
      4 C          62.7057   85.6965   11.9445 C.ar    1  UNL1        0.2812
      5 O          61.9180   85.5453   10.6770 O.2     1  UNL1       -0.2651
      6 N          63.2126   84.5783   12.8063 N.ar    1  UNL1       -0.2166
      7 N          63.9449   85.1831   13.9673 N.ar    1  UNL1       -0.2886
      8 C          63.8907   86.6752   13.8230 C.ar    1  UNL1        0.0829
      9 C          64.4398   87.7860   14.6684 C.ar    1  UNL1        0.0793
     10 C          64.2229   89.2139   14.2637 C.ar    1  UNL1        0.2625
     11 O          64.7720   90.3247   15.1092 O.2     1  UNL1       -0.2669
     12 N          63.4571   89.5312   13.0137 N.ar    1  UNL1       -0.2932
     13 H          64.3841   84.6878   14.6960 H       1  UNL1        0.1875
     14 C          63.0207   83.1125   12.5519 C.ar    1  UNL1        0.0944
     15 C          62.2921   82.2665   13.5535 C.ar    1  UNL1        0.0200
     16 C          62.1004   80.8007   13.2990 C.ar    1  UNL1        0.0016
     17 C          62.6372   80.1810   12.0429 C.ar    1  UNL1        0.0010
     18 C          63.3658   81.0270   11.0412 C.ar    1  UNL1        0.0129
     19 C          63.5575   82.4928   11.2958 C.ar    1  UNL1        0.0753
     20 CL         64.2861   83.3389   10.2941 Cl      1  UNL1       -0.0807
     21 C          63.2402   90.9593   12.6090 C.3     1  UNL1        0.1544
     22 C          64.4059   91.8055   12.1905 C.ar    1  UNL1        0.0819
     23 C          64.7296   91.9694   10.7351 C.ar    1  UNL1        0.0167
     24 C          65.8953   92.8156   10.3166 C.ar    1  UNL1        0.0029
     25 C          66.7373   93.4979   11.3536 C.ar    1  UNL1        0.0207
     26 C          66.4137   93.3340   12.8091 C.ar    1  UNL1        0.0985
     27 N          65.2480   92.4878   13.2275 N.ar    1  UNL1       -0.2462
@<TRIPOS>BOND
     1     1     2    1
     2     2     3   ar
     3     3     4   ar
     4     4     5    2
     5     4     6   ar
     6     6    14    1
     7    14    15   ar
     8    15    16   ar
     9    16    17   ar
    10    17    18   ar
    11    18    19   ar
    12    19    20    1
    13     6     7   ar
    14     7     8   ar
    15     8     9   ar
    16     9    10   ar
    17    10    11    2
    18    10    12   ar
    19    12    21    1
    20    21    22    1
    21    22    23   ar
    22    23    24   ar
    23    24    25   ar
    24    25    26   ar
    25    26    27   ar
    26    12     2   ar
    27    27    22   ar
    28     8     3   ar
    29    19    14   ar
    30     7    13    1
@<TRIPOS>MOLECULE
*****
 27 30 0 0 0
SMALL
GASTEIGER

@<TRIPOS>ATOM
      1 C          63.9430   88.2882   14.3311 C.3     1  UNL1        0.0503
      2 C          63.9164   89.4044   13.3294 C.ar    1  UNL1        0.0467
      3 C          63.2123   89.2188   12.0180 C.ar    1  UNL1        0.0866
      4 C          62.4620   88.0570   11.4374 C.ar    1  UNL1        0.2812
      5 O          62.2408   86.7299   12.1007 O.2     1  UNL1       -0.2651
      6 N          61.9716   88.4552   10.0769 N.ar    1  UNL1       -0.2166
      7 N          62.4189   89.8632    9.8167 N.ar    1  UNL1       -0.2886
      8 C          63.1858   90.3350   11.0164 C.ar    1  UNL1        0.0829
      9 C          63.8633   91.6370   11.3262 C.ar    1  UNL1        0.0793
     10 C          64.5673   91.8226   12.6376 C.ar    1  UNL1        0.2625
     11 O          65.2448   93.1246   12.9473 O.2     1  UNL1       -0.2669
     12 N          64.5939   90.7064   13.6392 N.ar    1  UNL1       -0.2932
     13 H          62.2406   90.3857    9.0016 H       1  UNL1        0.1875
     14 C          61.1740   87.5964    9.1409 C.ar    1  UNL1        0.0944
     15 C          59.7482   87.9462    8.8330 C.ar    1  UNL1        0.0200
     16 C          58.9506   87.0873    7.8969 C.ar    1  UNL1        0.0016
     17 C          59.5787   85.8786    7.2688 C.ar    1  UNL1        0.0010
     18 C          61.0045   85.5288    7.5767 C.ar    1  UNL1        0.0129
     19 C          61.8021   86.3877    8.5128 C.ar    1  UNL1        0.0753
     20 CL         63.2278   86.0379    8.8207 Cl      1  UNL1       -0.0807
     21 C          65.2980   90.8921   14.9507 C.3     1  UNL1        0.1544
     22 C          66.5870   91.6571   15.0082 C.ar    1  UNL1        0.0819
     23 C          66.7945   92.6984   16.0677 C.ar    1  UNL1        0.0167
     24 C          68.0835   93.4634   16.1252 C.ar    1  UNL1        0.0029
     25 C          69.1650   93.1871   15.1232 C.ar    1  UNL1        0.0207
     26 C          68.9575   92.1458   14.0636 C.ar    1  UNL1        0.0985
     27 N          67.6685   91.3808   14.0061 N.ar    1  UNL1       -0.2462
@<TRIPOS>BOND
     1     1     2    1
     2     2     3   ar
     3     3     4   ar
     4     4     5    2
     5     4     6   ar
     6     6    14    1
     7    14    15   ar
     8    15    16   ar
     9    16    17   ar
    10    17    18   ar
    11    18    19   ar
    12    19    20    1
    13     6     7   ar
    14     7     8   ar
    15     8     9   ar
    16     9    10   ar
    17    10    11    2
    18    10    12   ar
    19    12    21    1
    20    21    22    1
    21    22    23   ar
    22    23    24   ar
    23    24    25   ar
    24    25    26   ar
    25    26    27   ar
    26    12     2   ar
    27    27    22   ar
    28     8     3   ar
    29    19    14   ar
    30     7    13    1
@<TRIPOS>MOLECULE
*****
 27 30 0 0 0
SMALL
GASTEIGER

@<TRIPOS>ATOM
      1 C          62.8215   89.9702   10.4933 C.3     1  UNL1        0.0503
      2 C          63.4599   89.8272   11.8431 C.ar    1  UNL1        0.0467
      3 C          63.4834   88.4909   12.5241 C.ar    1  UNL1        0.0866
      4 C          62.9613   87.1460   12.1135 C.ar    1  UNL1        0.2812
      5 O          62.2486   86.8305   10.8319 O.2     1  UNL1       -0.2651
      6 N          63.2771   86.1719   13.2096 N.ar    1  UNL1       -0.2166
      7 N          63.9943   86.9148   14.2976 N.ar    1  UNL1       -0.2886
      8 C          64.1218   88.3481   13.8739 C.ar    1  UNL1        0.0829
      9 C          64.7368   89.5415   14.5428 C.ar    1  UNL1        0.0793
     10 C          64.7133   90.8779   13.8618 C.ar    1  UNL1        0.2625
     11 O          65.3284   92.0713   14.5308 O.2     1  UNL1       -0.2669
     12 N          64.0749   91.0207   12.5121 N.ar    1  UNL1       -0.2932
     13 H          64.3236   86.5294   15.1415 H       1  UNL1        0.1875
     14 C          62.9356   84.7113   13.2165 C.ar    1  UNL1        0.0944
     15 C          63.0163   83.9162   11.9472 C.ar    1  UNL1        0.0200
     16 C          62.6748   82.4555   11.9543 C.ar    1  UNL1        0.0016
     17 C          62.2526   81.7901   13.2305 C.ar    1  UNL1        0.0010
     18 C          62.1718   82.5853   14.4998 C.ar    1  UNL1        0.0129
     19 C          62.5133   84.0459   14.4928 C.ar    1  UNL1        0.0753
     20 CL         62.4326   84.8410   15.7621 Cl      1  UNL1       -0.0807
     21 C          64.0515   92.3572   11.8312 C.3     1  UNL1        0.1544
     22 C          65.2707   92.8542   11.1125 C.ar    1  UNL1        0.0819
     23 C          66.4207   91.9260   10.8561 C.ar    1  UNL1        0.0167
     24 C          67.6399   92.4231   10.1374 C.ar    1  UNL1        0.0029
     25 C          67.7091   93.8484    9.6752 C.ar    1  UNL1        0.0207
     26 C          66.5591   94.7766    9.9317 C.ar    1  UNL1        0.0985
     27 N          65.3399   94.2796   10.6503 N.ar    1  UNL1       -0.2462
@<TRIPOS>BOND
     1     1     2    1
     2     2     3   ar
     3     3     4   ar
     4     4     5    2
     5     4     6   ar
     6     6    14    1
     7    14    15   ar
     8    15    16   ar
     9    16    17   ar
    10    17    18   ar
    11    18    19   ar
    12    19    20    1
    13     6     7   ar
    14     7     8   ar
    15     8     9   ar
    16     9    10   ar
    17    10    11    2
    18    10    12   ar
    19    12    21    1
    20    21    22    1
    21    22    23   ar
    22    23    24   ar
    23    24    25   ar
    24    25    26   ar
    25    26    27   ar
    26    12     2   ar
    27    27    22   ar
    28     8     3   ar
    29    19    14   ar
    30     7    13    1
@<TRIPOS>MOLECULE
*****
 27 30 0 0 0
SMALL
GASTEIGER

@<TRIPOS>ATOM
      1 C          63.0902   90.2858   12.9981 C.3     1  UNL1        0.0503
      2 C          64.0151   91.1522   13.8007 C.ar    1  UNL1        0.0467
      3 C          64.9240   92.1232   13.1071 C.ar    1  UNL1        0.0866
      4 C          65.1285   92.4460   11.6566 C.ar    1  UNL1        0.2812
      5 O          64.4083   91.8139   10.5025 O.2     1  UNL1       -0.2651
      6 N          66.1797   93.5119   11.5627 N.ar    1  UNL1       -0.2166
      7 N          66.6249   93.8478   12.9552 N.ar    1  UNL1       -0.2886
      8 C          65.8488   92.9895   13.9097 C.ar    1  UNL1        0.0829
      9 C          65.8647   92.8849   15.4059 C.ar    1  UNL1        0.0793
     10 C          64.9558   91.9140   16.0996 C.ar    1  UNL1        0.2625
     11 O          64.9718   91.8094   17.5959 O.2     1  UNL1       -0.2669
     12 N          64.0310   91.0477   15.2970 N.ar    1  UNL1       -0.2932
     13 H          67.3067   94.5145   13.1998 H       1  UNL1        0.1875
     14 C          66.6953   94.1329   10.2984 C.ar    1  UNL1        0.0944
     15 C          66.2706   95.5199    9.9166 C.ar    1  UNL1        0.0200
     16 C          66.7862   96.1408    8.6522 C.ar    1  UNL1        0.0016
     17 C          67.7265   95.3748    7.7697 C.ar    1  UNL1        0.0010
     18 C          68.1513   93.9877    8.1514 C.ar    1  UNL1        0.0129
     19 C          67.6356   93.3668    9.4158 C.ar    1  UNL1        0.0753
     20 CL         68.0603   91.9798    9.7976 Cl      1  UNL1       -0.0807
     21 C          63.1221   90.0766   15.9907 C.3     1  UNL1        0.1544
     22 C          63.4292   88.6087   15.9602 C.ar    1  UNL1        0.0819
     23 C          64.3386   88.0545   14.9039 C.ar    1  UNL1        0.0167
     24 C          64.6458   86.5866   14.8734 C.ar    1  UNL1        0.0029
     25 C          64.0435   85.6729   15.8993 C.ar    1  UNL1        0.0207
     26 C          63.1340   86.2271   16.9556 C.ar    1  UNL1        0.0985
     27 N          62.8269   87.6950   16.9860 N.ar    1  UNL1       -0.2462
@<TRIPOS>BOND
     1     1     2    1
     2     2     3   ar
     3     3     4   ar
     4     4     5    2
     5     4     6   ar
     6     6    14    1
     7    14    15   ar
     8    15    16   ar
     9    16    17   ar
    10    17    18   ar
    11    18    19   ar
    12    19    20    1
    13     6     7   ar
    14     7     8   ar
    15     8     9   ar
    16     9    10   ar
    17    10    11    2
    18    10    12   ar
    19    12    21    1
    20    21    22    1
    21    22    23   ar
    22    23    24   ar
    23    24    25   ar
    24    25    26   ar
    25    26    27   ar
    26    12     2   ar
    27    27    22   ar
    28     8     3   ar
    29    19    14   ar
    30     7    13    1
@<TRIPOS>MOLECULE
*****
 27 30 0 0 0
SMALL
GASTEIGER

@<TRIPOS>ATOM
      1 C          63.7572   91.3511   10.9164 C.3     1  UNL1        0.0503
      2 C          64.5467   91.4923   12.1840 C.ar    1  UNL1        0.0467
      3 C          64.5382   90.3888   13.1999 C.ar    1  UNL1        0.0866
      4 C          63.8513   89.0556   13.2278 C.ar    1  UNL1        0.2812
      5 O          62.9565   88.5022   12.1587 O.2     1  UNL1       -0.2651
      6 N          64.2164   88.3730   14.5126 N.ar    1  UNL1       -0.2166
      7 N          65.1289   89.2842   15.2787 N.ar    1  UNL1       -0.2886
      8 C          65.3278   90.5301   14.4674 C.ar    1  UNL1        0.0829
      9 C          66.1259   91.7750   14.7190 C.ar    1  UNL1        0.0793
     10 C          66.1344   92.8785   13.7031 C.ar    1  UNL1        0.2625
     11 O          66.9325   94.1234   13.9548 O.2     1  UNL1       -0.2669
     12 N          65.3449   92.7372   12.4357 N.ar    1  UNL1       -0.2932
     13 H          65.5273   89.0974   16.1594 H       1  UNL1        0.1875
     14 C          63.7507   87.0171   14.9539 C.ar    1  UNL1        0.0944
     15 C          63.8904   85.8402   14.0345 C.ar    1  UNL1        0.0200
     16 C          63.4246   84.4843   14.4759 C.ar    1  UNL1        0.0016
     17 C          62.8193   84.3053   15.8366 C.ar    1  UNL1        0.0010
     18 C          62.6796   85.4822   16.7560 C.ar    1  UNL1        0.0129
     19 C          63.1453   86.8381   16.3146 C.ar    1  UNL1        0.0753
     20 CL         63.0057   88.0150   17.2340 Cl      1  UNL1       -0.0807
     21 C          65.3534   93.8409   11.4197 C.3     1  UNL1        0.1544
     22 C          66.3653   93.8332   10.3125 C.ar    1  UNL1        0.0819
     23 C          67.3186   92.6832   10.1756 C.ar    1  UNL1        0.0167
     24 C          68.3305   92.6755    9.0684 C.ar    1  UNL1        0.0029
     25 C          68.3891   93.8178    8.0980 C.ar    1  UNL1        0.0207
     26 C          67.4358   94.9678    8.2348 C.ar    1  UNL1        0.0985
     27 N          66.4239   94.9755    9.3421 N.ar    1  UNL1       -0.2462
@<TRIPOS>BOND
     1     1     2    1
     2     2     3   ar
     3     3     4   ar
     4     4     5    2
     5     4     6   ar
     6     6    14    1
     7    14    15   ar
     8    15    16   ar
     9    16    17   ar
    10    17    18   ar
    11    18    19   ar
    12    19    20    1
    13     6     7   ar
    14     7     8   ar
    15     8     9   ar
    16     9    10   ar
    17    10    11    2
    18    10    12   ar
    19    12    21    1
    20    21    22    1
    21    22    23   ar
    22    23    24   ar
    23    24    25   ar
    24    25    26   ar
    25    26    27   ar
    26    12     2   ar
    27    27    22   ar
    28     8     3   ar
    29    19    14   ar
    30     7    13    1
@<TRIPOS>MOLECULE
*****
 27 30 0 0 0
SMALL
GASTEIGER

@<TRIPOS>ATOM
      1 C          63.2857   91.4482   11.8455 C.3     1  UNL1        0.0503
      2 C          63.3706   90.1446   12.5827 C.ar    1  UNL1        0.0467
      3 C          63.0319   88.8627   11.8812 C.ar    1  UNL1        0.0866
      4 C          62.5871   88.5736   10.4782 C.ar    1  UNL1        0.2812
      5 O          62.3705   89.5885    9.3951 O.2     1  UNL1       -0.2651
      6 N          62.3971   87.0914   10.3483 N.ar    1  UNL1       -0.2166
      7 N          62.7244   86.4644   11.6711 N.ar    1  UNL1       -0.2886
      8 C          63.1167   87.5592   12.6185 C.ar    1  UNL1        0.0829
      9 C          63.5403   87.5376   14.0573 C.ar    1  UNL1        0.0793
     10 C          63.8789   88.8194   14.7588 C.ar    1  UNL1        0.2625
     11 O          64.3025   88.7977   16.1977 O.2     1  UNL1       -0.2669
     12 N          63.7941   90.1229   14.0216 N.ar    1  UNL1       -0.2932
     13 H          62.6881   85.5032   11.8807 H       1  UNL1        0.1875
     14 C          61.9571   86.3638    9.1126 C.ar    1  UNL1        0.0944
     15 C          62.9194   85.4736    8.3837 C.ar    1  UNL1        0.0200
     16 C          62.4792   84.7460    7.1480 C.ar    1  UNL1        0.0016
     17 C          61.0768   84.9086    6.6412 C.ar    1  UNL1        0.0010
     18 C          60.1145   85.7988    7.3702 C.ar    1  UNL1        0.0129
     19 C          60.5547   86.5264    8.6059 C.ar    1  UNL1        0.0753
     20 CL         59.5923   87.4166    9.3349 Cl      1  UNL1       -0.0807
     21 C          64.1328   91.4048   14.7231 C.3     1  UNL1        0.1544
     22 C          65.5654   91.8261   14.8653 C.ar    1  UNL1        0.0819
     23 C          66.5438   91.5408   13.7647 C.ar    1  UNL1        0.0167
     24 C          67.9764   91.9621   13.9069 C.ar    1  UNL1        0.0029
     25 C          68.4306   92.6687   15.1497 C.ar    1  UNL1        0.0207
     26 C          67.4521   92.9540   16.2503 C.ar    1  UNL1        0.0985
     27 N          66.0195   92.5327   16.1081 N.ar    1  UNL1       -0.2462
@<TRIPOS>BOND
     1     1     2    1
     2     2     3   ar
     3     3     4   ar
     4     4     5    2
     5     4     6   ar
     6     6    14    1
     7    14    15   ar
     8    15    16   ar
     9    16    17   ar
    10    17    18   ar
    11    18    19   ar
    12    19    20    1
    13     6     7   ar
    14     7     8   ar
    15     8     9   ar
    16     9    10   ar
    17    10    11    2
    18    10    12   ar
    19    12    21    1
    20    21    22    1
    21    22    23   ar
    22    23    24   ar
    23    24    25   ar
    24    25    26   ar
    25    26    27   ar
    26    12     2   ar
    27    27    22   ar
    28     8     3   ar
    29    19    14   ar
    30     7    13    1
@<TRIPOS>MOLECULE
*****
 27 30 0 0 0
SMALL
GASTEIGER

@<TRIPOS>ATOM
      1 C          62.3977   89.7034   10.5250 C.3     1  UNL1        0.0503
      2 C          63.2389   89.8812   11.7542 C.ar    1  UNL1        0.0467
      3 C          64.1856   91.0404   11.8540 C.ar    1  UNL1        0.0866
      4 C          64.5035   92.1609   10.9087 C.ar    1  UNL1        0.2812
      5 O          63.8913   92.3737    9.5560 O.2     1  UNL1       -0.2651
      6 N          65.5411   93.0311   11.5537 N.ar    1  UNL1       -0.2166
      7 N          65.8645   92.4485   12.8976 N.ar    1  UNL1       -0.2886
      8 C          65.0268   91.2181   13.0832 C.ar    1  UNL1        0.0829
      9 C          64.9211   90.2367   14.2126 C.ar    1  UNL1        0.0793
     10 C          63.9744   89.0775   14.1128 C.ar    1  UNL1        0.2625
     11 O          63.8688   88.0961   15.2423 O.2     1  UNL1       -0.2669
     12 N          63.1333   88.8998   12.8837 N.ar    1  UNL1       -0.2932
     13 H          66.5128   92.8101   13.5443 H       1  UNL1        0.1875
     14 C          66.1487   94.2670   10.9593 C.ar    1  UNL1        0.0944
     15 C          65.7430   95.6198   11.4646 C.ar    1  UNL1        0.0200
     16 C          66.3507   96.8556   10.8700 C.ar    1  UNL1        0.0016
     17 C          67.3640   96.7388    9.7702 C.ar    1  UNL1        0.0010
     18 C          67.7697   95.3860    9.2650 C.ar    1  UNL1        0.0129
     19 C          67.1621   94.1501    9.8595 C.ar    1  UNL1        0.0753
     20 CL         67.5678   92.7973    9.3542 Cl      1  UNL1       -0.0807
     21 C          62.1865   87.7405   12.7839 C.3     1  UNL1        0.1544
     22 C          62.6821   86.4059   12.3113 C.ar    1  UNL1        0.0819
     23 C          62.3895   85.9496   10.9127 C.ar    1  UNL1        0.0167
     24 C          62.8851   84.6150   10.4402 C.ar    1  UNL1        0.0029
     25 C          63.6733   83.7368   11.3662 C.ar    1  UNL1        0.0207
     26 C          63.9659   84.1932   12.7648 C.ar    1  UNL1        0.0985
     27 N          63.4703   85.5278   13.2374 N.ar    1  UNL1       -0.2462
@<TRIPOS>BOND
     1     1     2    1
     2     2     3   ar
     3     3     4   ar
     4     4     5    2
     5     4     6   ar
     6     6    14    1
     7    14    15   ar
     8    15    16   ar
     9    16    17   ar
    10    17    18   ar
    11    18    19   ar
    12    19    20    1
    13     6     7   ar
    14     7     8   ar
    15     8     9   ar
    16     9    10   ar
    17    10    11    2
    18    10    12   ar
    19    12    21    1
    20    21    22    1
    21    22    23   ar
    22    23    24   ar
    23    24    25   ar
    24    25    26   ar
    25    26    27   ar
    26    12     2   ar
    27    27    22   ar
    28     8     3   ar
    29    19    14   ar
    30     7    13    1
