@<TRIPOS>MOLECULE
*****
 44 49 0 0 0
SMALL
GASTEIGER

@<TRIPOS>ATOM
      1 N          59.9745   92.1612    3.2191 N.pl3   1  UNL1       -0.3041
      2 C          61.2156   91.4943    3.7337 C.3     1  UNL1        0.1122
      3 C          61.1719   90.7139    5.0140 C.3     1  UNL1        0.1122
      4 N          59.8870   90.6004    5.7797 N.pl3   1  UNL1       -0.3041
      5 C          58.6459   91.2673    5.2650 C.3     1  UNL1        0.1122
      6 C          58.6896   92.0477    3.9848 C.3     1  UNL1        0.1122
      7 C          60.1057   94.5024   -0.6216 C.ar    1  UNL1        0.0699
      8 C          61.1944   94.6701    0.3965 C.ar    1  UNL1        0.0190
      9 C          61.1507   93.8897    1.6767 C.ar    1  UNL1        0.0160
     10 C          60.0182   92.9416    1.9388 C.ar    1  UNL1        0.0480
     11 C          58.9295   92.7740    0.9207 C.ar    1  UNL1        0.0160
     12 C          58.9733   93.5544   -0.3595 C.ar    1  UNL1        0.0190
     13 N          60.8346   96.1118   -4.0777 N.ar    1  UNL1       -0.2024
     14 N          59.5987   96.8558   -3.6664 N.ar    1  UNL1       -0.1442
     15 C          59.1753   96.3434   -2.3217 C.ar    1  UNL1        0.2073
     16 N          60.1494   95.2829   -1.9019 N.ar    1  UNL1       -0.2398
     17 C          61.1750   95.1397   -2.9872 C.ar    1  UNL1        0.3522
     18 O          62.3369   94.1911   -2.9827 O.2     1  UNL1       -0.2444
     19 C          61.5964   96.3059   -5.3552 C.3     1  UNL1        0.1099
     20 C          62.9915   96.8560   -5.3203 C.3     1  UNL1        0.0265
     21 C          60.7109   94.5124   -7.0132 C.3     1  UNL1        0.0021
     22 C          60.9632   95.9500   -6.6675 C.3     1  UNL1        0.0245
     23 C          59.8433   89.8200    7.0599 C.ar    1  UNL1        0.0481
     24 C          60.3414   90.4383    8.3325 C.ar    1  UNL1        0.0176
     25 C          60.2976   89.6580    9.6128 C.ar    1  UNL1        0.0382
     26 C          59.7557   88.2593    9.6205 C.ar    1  UNL1        0.1386
     27 C          59.2576   87.6410    8.3478 C.ar    1  UNL1        0.0382
     28 C          59.3014   88.4214    7.0675 C.ar    1  UNL1        0.0176
     29 O          59.7120   87.4789   10.9007 O.3     1  UNL1       -0.4754
     30 C          60.9885   87.0764   11.5776 C.3     1  UNL1        0.2079
     31 C          61.8903   86.0634   10.9366 C.3     1  UNL1        0.0760
     32 C          62.5336   86.1845    9.5870 C.3     1  UNL1        0.1461
     33 O          63.3479   84.9475    9.3489 O.3     1  UNL1       -0.3543
     34 C          63.2080   84.0619   10.5515 C.3     1  UNL1        0.1137
     35 C          64.1194   83.1471    9.7883 C.3     1  UNL1        0.0343
     36 C          62.3071   84.7516   11.5328 C.3     1  UNL1        0.0378
     37 C          63.2586   82.9851   11.5946 C.ar    1  UNL1        0.0296
     38 C          62.6620   81.6382   11.3116 C.ar    1  UNL1        0.0025
     39 C          62.7126   80.5614   12.3546 C.ar    1  UNL1        0.0295
     40 C          63.3598   80.8314   13.6806 C.ar    1  UNL1        0.1424
     41 F          63.4104   79.7545   14.7236 F       1  UNL1       -0.2041
     42 C          63.9563   82.1782   13.9635 C.ar    1  UNL1        0.0590
     43 C          63.9058   83.2551   12.9205 C.ar    1  UNL1        0.1405
     44 F          64.5023   84.6019   13.2035 F       1  UNL1       -0.2044
@<TRIPOS>BOND
     1    21    22    1
     2    22    19    1
     3    19    20    1
     4    19    13    1
     5    13    14   ar
     6    14    15   ar
     7    15    16   ar
     8    16     7    1
     9     7     8   ar
    10     8     9   ar
    11     9    10   ar
    12    10     1    1
    13     1     2    1
    14     2     3    1
    15     3     4    1
    16     4    23    1
    17    23    24   ar
    18    24    25   ar
    19    25    26   ar
    20    26    29    1
    21    29    30    1
    22    31    30    1
    23    31    32    1
    24    32    33    1
    25    33    34    1
    26    34    35    1
    27    34    37    1
    28    37    38   ar
    29    38    39   ar
    30    39    40   ar
    31    40    41    1
    32    40    42   ar
    33    42    43   ar
    34    43    44    1
    35    34    36    1
    36    26    27   ar
    37    27    28   ar
    38     4     5    1
    39     5     6    1
    40    10    11   ar
    41    11    12   ar
    42    16    17   ar
    43    17    18    2
    44    17    13   ar
    45    12     7   ar
    46     6     1    1
    47    28    23   ar
    48    36    31    1
    49    43    37   ar
@<TRIPOS>MOLECULE
*****
 44 49 0 0 0
SMALL
GASTEIGER

@<TRIPOS>ATOM
      1 N          59.6996   92.0179    3.5107 N.pl3   1  UNL1       -0.3041
      2 C          61.0490   91.5065    3.9201 C.3     1  UNL1        0.1122
      3 C          61.1951   90.6956    5.1735 C.3     1  UNL1        0.1122
      4 N          59.9919   90.3961    6.0176 N.pl3   1  UNL1       -0.3041
      5 C          58.6424   90.9075    5.6082 C.3     1  UNL1        0.1122
      6 C          58.4963   91.7184    4.3548 C.3     1  UNL1        0.1122
      7 C          59.2612   94.4505   -0.2496 C.ar    1  UNL1        0.0699
      8 C          58.7670   93.0348   -0.2103 C.ar    1  UNL1        0.0190
      9 C          58.9131   92.2240    1.0431 C.ar    1  UNL1        0.0160
     10 C          59.5535   92.8288    2.2572 C.ar    1  UNL1        0.0480
     11 C          60.0477   94.2445    2.2180 C.ar    1  UNL1        0.0160
     12 C          59.9015   95.0553    0.9645 C.ar    1  UNL1        0.0190
     13 N          59.4878   96.1639   -3.7250 N.ar    1  UNL1       -0.2024
     14 N          58.2923   96.8547   -3.1387 N.ar    1  UNL1       -0.1442
     15 C          58.0620   96.2970   -1.7655 C.ar    1  UNL1        0.2073
     16 N          59.1150   95.2614   -1.5031 N.ar    1  UNL1       -0.2398
     17 C          59.9962   95.1792   -2.7141 C.ar    1  UNL1        0.3522
     18 O          61.1783   94.2717   -2.8845 O.2     1  UNL1       -0.2444
     19 C          60.0722   96.4139   -5.0837 C.3     1  UNL1        0.1099
     20 C          59.2267   96.2310   -6.3091 C.3     1  UNL1        0.0265
     21 C          62.5609   95.8422   -5.5628 C.3     1  UNL1        0.0021
     22 C          61.5022   96.8468   -5.2170 C.3     1  UNL1        0.0245
     23 C          60.1380   89.5852    7.2710 C.ar    1  UNL1        0.0481
     24 C          61.0955   90.0223    8.3396 C.ar    1  UNL1        0.0176
     25 C          61.2416   89.2114    9.5931 C.ar    1  UNL1        0.0382
     26 C          60.4302   87.9634    9.7779 C.ar    1  UNL1        0.1386
     27 C          59.4726   87.5263    8.7092 C.ar    1  UNL1        0.0382
     28 C          59.3265   88.3372    7.4558 C.ar    1  UNL1        0.0176
     29 O          60.5763   87.1525   11.0313 O.3     1  UNL1       -0.4754
     30 C          61.4709   85.9487   11.0457 C.3     1  UNL1        0.2079
     31 C          62.4792   85.7765   12.1429 C.3     1  UNL1        0.0760
     32 C          63.2886   84.5424   12.4108 C.3     1  UNL1        0.1461
     33 O          64.1647   84.8114   13.5983 O.3     1  UNL1       -0.3543
     34 C          63.8966   86.2118   14.0644 C.3     1  UNL1        0.1137
     35 C          64.9273   85.8941   15.1068 C.3     1  UNL1        0.0343
     36 C          62.8549   86.8082   13.1649 C.3     1  UNL1        0.0378
     37 C          63.8441   87.5457   14.7483 C.ar    1  UNL1        0.0296
     38 C          64.2963   88.7786   14.0234 C.ar    1  UNL1        0.0025
     39 C          64.2437   90.1125   14.7074 C.ar    1  UNL1        0.0295
     40 C          63.7389   90.2136   16.1163 C.ar    1  UNL1        0.1424
     41 F          63.6864   91.5476   16.8002 F       1  UNL1       -0.2041
     42 C          63.2868   88.9808   16.8412 C.ar    1  UNL1        0.0590
     43 C          63.3393   87.6467   16.1572 C.ar    1  UNL1        0.1405
     44 F          62.8871   86.4139   16.8821 F       1  UNL1       -0.2044
@<TRIPOS>BOND
     1    21    22    1
     2    22    19    1
     3    19    20    1
     4    19    13    1
     5    13    14   ar
     6    14    15   ar
     7    15    16   ar
     8    16     7    1
     9     7     8   ar
    10     8     9   ar
    11     9    10   ar
    12    10     1    1
    13     1     2    1
    14     2     3    1
    15     3     4    1
    16     4    23    1
    17    23    24   ar
    18    24    25   ar
    19    25    26   ar
    20    26    29    1
    21    29    30    1
    22    31    30    1
    23    31    32    1
    24    32    33    1
    25    33    34    1
    26    34    35    1
    27    34    37    1
    28    37    38   ar
    29    38    39   ar
    30    39    40   ar
    31    40    41    1
    32    40    42   ar
    33    42    43   ar
    34    43    44    1
    35    34    36    1
    36    26    27   ar
    37    27    28   ar
    38     4     5    1
    39     5     6    1
    40    10    11   ar
    41    11    12   ar
    42    16    17   ar
    43    17    18    2
    44    17    13   ar
    45    12     7   ar
    46     6     1    1
    47    28    23   ar
    48    36    31    1
    49    43    37   ar
@<TRIPOS>MOLECULE
*****
 44 49 0 0 0
SMALL
GASTEIGER

@<TRIPOS>ATOM
      1 N          59.8864   92.3547    2.8211 N.pl3   1  UNL1       -0.3041
      2 C          61.1863   91.8256    3.3506 C.3     1  UNL1        0.1122
      3 C          61.2151   91.0617    4.6412 C.3     1  UNL1        0.1122
      4 N          59.9440   90.8269    5.4023 N.pl3   1  UNL1       -0.3041
      5 C          58.6441   91.3561    4.8727 C.3     1  UNL1        0.1122
      6 C          58.6153   92.1199    3.5822 C.3     1  UNL1        0.1122
      7 C          59.8000   94.6462   -1.0508 C.ar    1  UNL1        0.0699
      8 C          59.8901   93.1490   -1.0672 C.ar    1  UNL1        0.0190
      9 C          59.9189   92.3852    0.2234 C.ar    1  UNL1        0.0160
     10 C          59.8576   93.1186    1.5304 C.ar    1  UNL1        0.0480
     11 C          59.7675   94.6158    1.5469 C.ar    1  UNL1        0.0160
     12 C          59.7387   95.3796    0.2563 C.ar    1  UNL1        0.0190
     13 N          59.0423   96.3154   -4.4721 N.ar    1  UNL1       -0.2024
     14 N          60.4114   96.8559   -4.1828 N.ar    1  UNL1       -0.1442
     15 C          60.8618   96.2964   -2.8659 C.ar    1  UNL1        0.2073
     16 N          59.7711   95.4101   -2.3414 N.ar    1  UNL1       -0.2398
     17 C          58.6467   95.4219   -3.3341 C.ar    1  UNL1        0.3522
     18 O          57.3536   94.6718   -3.2105 O.2     1  UNL1       -0.2444
     19 C          58.2144   96.6157   -5.6863 C.3     1  UNL1        0.1099
     20 C          58.8609   96.6775   -7.0384 C.3     1  UNL1        0.0265
     21 C          55.7746   95.7257   -5.7596 C.3     1  UNL1        0.0021
     22 C          56.7399   96.8541   -5.5485 C.3     1  UNL1        0.0245
     23 C          59.9728   90.0631    6.6929 C.ar    1  UNL1        0.0481
     24 C          60.6397   90.6541    7.8995 C.ar    1  UNL1        0.0176
     25 C          60.6685   89.8902    9.1901 C.ar    1  UNL1        0.0382
     26 C          60.0303   88.5354    9.2742 C.ar    1  UNL1        0.1386
     27 C          59.3633   87.9444    8.0675 C.ar    1  UNL1        0.0382
     28 C          59.3346   88.7082    6.7769 C.ar    1  UNL1        0.0176
     29 O          60.0591   87.7715   10.5647 O.3     1  UNL1       -0.4754
     30 C          60.6694   86.4021   10.6123 C.3     1  UNL1        0.2079
     31 C          61.7571   86.0996   11.5999 C.3     1  UNL1        0.0760
     32 C          62.7078   87.0946   12.1968 C.3     1  UNL1        0.1461
     33 O          63.6233   86.3590   13.1298 O.3     1  UNL1       -0.3543
     34 C          63.2385   84.9093   13.1097 C.3     1  UNL1        0.1137
     35 C          64.3604   84.7601   14.0940 C.3     1  UNL1        0.0343
     36 C          62.0851   84.7490   12.1641 C.3     1  UNL1        0.0378
     37 C          63.0882   83.4285   13.2953 C.ar    1  UNL1        0.0296
     38 C          62.0854   82.8932   14.2740 C.ar    1  UNL1        0.0025
     39 C          61.9351   81.4123   14.4596 C.ar    1  UNL1        0.0295
     40 C          62.7877   80.4668   13.6665 C.ar    1  UNL1        0.1424
     41 F          62.6373   78.9858   13.8522 F       1  UNL1       -0.2041
     42 C          63.7904   81.0020   12.6879 C.ar    1  UNL1        0.0590
     43 C          63.9408   82.4829   12.5022 C.ar    1  UNL1        0.1405
     44 F          64.9435   83.0181   11.5236 F       1  UNL1       -0.2044
@<TRIPOS>BOND
     1    21    22    1
     2    22    19    1
     3    19    20    1
     4    19    13    1
     5    13    14   ar
     6    14    15   ar
     7    15    16   ar
     8    16     7    1
     9     7     8   ar
    10     8     9   ar
    11     9    10   ar
    12    10     1    1
    13     1     2    1
    14     2     3    1
    15     3     4    1
    16     4    23    1
    17    23    24   ar
    18    24    25   ar
    19    25    26   ar
    20    26    29    1
    21    29    30    1
    22    31    30    1
    23    31    32    1
    24    32    33    1
    25    33    34    1
    26    34    35    1
    27    34    37    1
    28    37    38   ar
    29    38    39   ar
    30    39    40   ar
    31    40    41    1
    32    40    42   ar
    33    42    43   ar
    34    43    44    1
    35    34    36    1
    36    26    27   ar
    37    27    28   ar
    38     4     5    1
    39     5     6    1
    40    10    11   ar
    41    11    12   ar
    42    16    17   ar
    43    17    18    2
    44    17    13   ar
    45    12     7   ar
    46     6     1    1
    47    28    23   ar
    48    36    31    1
    49    43    37   ar
@<TRIPOS>MOLECULE
*****
 44 49 0 0 0
SMALL
GASTEIGER

@<TRIPOS>ATOM
      1 N          59.6365   92.0622    3.3917 N.pl3   1  UNL1       -0.3041
      2 C          61.0077   91.6640    3.8511 C.3     1  UNL1        0.1122
      3 C          61.1757   90.8792    5.1184 C.3     1  UNL1        0.1122
      4 N          59.9724   90.4926    5.9262 N.pl3   1  UNL1       -0.3041
      5 C          58.6011   90.8909    5.4668 C.3     1  UNL1        0.1122
      6 C          58.4332   91.6757    4.1996 C.3     1  UNL1        0.1122
      7 C          59.1325   94.4165   -0.4100 C.ar    1  UNL1        0.0699
      8 C          58.6566   92.9958   -0.3390 C.ar    1  UNL1        0.0190
      9 C          58.8246   92.2111    0.9282 C.ar    1  UNL1        0.0160
     10 C          59.4685   92.8471    2.1244 C.ar    1  UNL1        0.0480
     11 C          59.9443   94.2678    2.0535 C.ar    1  UNL1        0.0160
     12 C          59.7763   95.0525    0.7862 C.ar    1  UNL1        0.0190
     13 N          59.2021   95.9626   -3.9696 N.ar    1  UNL1       -0.2024
     14 N          58.2099   96.8555   -3.2851 N.ar    1  UNL1       -0.1442
     15 C          58.0631   96.3850   -1.8684 C.ar    1  UNL1        0.2073
     16 N          58.9645   95.2014   -1.6773 N.ar    1  UNL1       -0.2398
     17 C          59.6684   94.9404   -2.9759 C.ar    1  UNL1        0.3522
     18 O          60.6639   93.8487   -3.2353 O.2     1  UNL1       -0.2444
     19 C          59.6493   96.0728   -5.3971 C.3     1  UNL1        0.1099
     20 C          61.0256   96.5774   -5.7150 C.3     1  UNL1        0.0265
     21 C          58.9195   94.3765   -7.2247 C.3     1  UNL1        0.0021
     22 C          58.7203   95.6783   -6.5067 C.3     1  UNL1        0.0245
     23 C          60.1403   89.7078    7.1934 C.ar    1  UNL1        0.0481
     24 C          59.3107   88.4810    7.4313 C.ar    1  UNL1        0.0176
     25 C          59.4786   87.6962    8.6985 C.ar    1  UNL1        0.0382
     26 C          60.4761   88.1382    9.7279 C.ar    1  UNL1        0.1386
     27 C          61.3057   89.3651    9.4900 C.ar    1  UNL1        0.0382
     28 C          61.1378   90.1499    8.2228 C.ar    1  UNL1        0.0176
     29 O          60.6440   87.3534   10.9951 O.3     1  UNL1       -0.4754
     30 C          61.6176   87.8141   12.0391 C.3     1  UNL1        0.2079
     31 C          62.5809   86.8391   12.6487 C.3     1  UNL1        0.0760
     32 C          63.5014   87.1126   13.8010 C.3     1  UNL1        0.1461
     33 O          64.2822   85.8621   14.0775 O.3     1  UNL1       -0.3543
     34 C          63.8442   84.8157   13.0960 C.3     1  UNL1        0.1137
     35 C          64.8480   83.9555   13.8048 C.3     1  UNL1        0.0343
     36 C          62.7928   85.4195   12.2129 C.3     1  UNL1        0.0378
     37 C          63.6162   83.5895   12.2627 C.ar    1  UNL1        0.0296
     38 C          64.2583   83.4702   10.9123 C.ar    1  UNL1        0.0025
     39 C          64.0302   82.2440   10.0790 C.ar    1  UNL1        0.0295
     40 C          63.1600   81.1371   10.5961 C.ar    1  UNL1        0.1424
     41 F          62.9320   79.9108    9.7627 F       1  UNL1       -0.2041
     42 C          62.5180   81.2562   11.9464 C.ar    1  UNL1        0.0590
     43 C          62.7460   82.4825   12.7797 C.ar    1  UNL1        0.1405
     44 F          62.1039   82.6017   14.1300 F       1  UNL1       -0.2044
@<TRIPOS>BOND
     1    21    22    1
     2    22    19    1
     3    19    20    1
     4    19    13    1
     5    13    14   ar
     6    14    15   ar
     7    15    16   ar
     8    16     7    1
     9     7     8   ar
    10     8     9   ar
    11     9    10   ar
    12    10     1    1
    13     1     2    1
    14     2     3    1
    15     3     4    1
    16     4    23    1
    17    23    24   ar
    18    24    25   ar
    19    25    26   ar
    20    26    29    1
    21    29    30    1
    22    31    30    1
    23    31    32    1
    24    32    33    1
    25    33    34    1
    26    34    35    1
    27    34    37    1
    28    37    38   ar
    29    38    39   ar
    30    39    40   ar
    31    40    41    1
    32    40    42   ar
    33    42    43   ar
    34    43    44    1
    35    34    36    1
    36    26    27   ar
    37    27    28   ar
    38     4     5    1
    39     5     6    1
    40    10    11   ar
    41    11    12   ar
    42    16    17   ar
    43    17    18    2
    44    17    13   ar
    45    12     7   ar
    46     6     1    1
    47    28    23   ar
    48    36    31    1
    49    43    37   ar
@<TRIPOS>MOLECULE
*****
 44 49 0 0 0
SMALL
GASTEIGER

@<TRIPOS>ATOM
      1 N          60.5334   92.4002    2.5252 N.pl3   1  UNL1       -0.3041
      2 C          61.7430   91.7222    3.0970 C.3     1  UNL1        0.1122
      3 C          61.6453   90.9890    4.4020 C.3     1  UNL1        0.1122
      4 N          60.3378   90.9339    5.1351 N.pl3   1  UNL1       -0.3041
      5 C          59.1281   91.6120    4.5633 C.3     1  UNL1        0.1122
      6 C          59.2259   92.3451    3.2583 C.3     1  UNL1        0.1122
      7 C          60.8266   94.5995   -1.3898 C.ar    1  UNL1        0.0699
      8 C          60.1434   93.2656   -1.3283 C.ar    1  UNL1        0.0190
      9 C          60.0457   92.5325   -0.0233 C.ar    1  UNL1        0.0160
     10 C          60.6311   93.1334    1.2202 C.ar    1  UNL1        0.0480
     11 C          61.3143   94.4673    1.1587 C.ar    1  UNL1        0.0160
     12 C          61.4120   95.2004   -0.1463 C.ar    1  UNL1        0.0190
     13 N          61.6959   96.0762   -4.8725 N.ar    1  UNL1       -0.2024
     14 N          60.4536   96.8455   -4.5334 N.ar    1  UNL1       -0.1442
     15 C          59.9768   96.3860   -3.1875 C.ar    1  UNL1        0.2073
     16 N          60.9244   95.3327   -2.6948 N.ar    1  UNL1       -0.2398
     17 C          61.9868   95.1413   -3.7362 C.ar    1  UNL1        0.3522
     18 O          63.1381   94.1832   -3.6555 O.2     1  UNL1       -0.2444
     19 C          62.5052   96.2172   -6.1276 C.3     1  UNL1        0.1099
     20 C          61.8167   96.3223   -7.4561 C.3     1  UNL1        0.0265
     21 C          64.7946   96.8558   -7.1766 C.3     1  UNL1        0.0021
     22 C          64.0029   96.2532   -6.0542 C.3     1  UNL1        0.0245
     23 C          60.2400   90.2008    6.4401 C.ar    1  UNL1        0.0481
     24 C          60.9705   90.7143    7.6454 C.ar    1  UNL1        0.0176
     25 C          60.8727   89.9812    8.9504 C.ar    1  UNL1        0.0382
     26 C          60.0444   88.7346    9.0501 C.ar    1  UNL1        0.1386
     27 C          59.3139   88.2211    7.8447 C.ar    1  UNL1        0.0382
     28 C          59.4117   88.9542    6.5398 C.ar    1  UNL1        0.0176
     29 O          59.9466   88.0015   10.3550 O.3     1  UNL1       -0.4754
     30 C          60.4774   86.6034   10.4714 C.3     1  UNL1        0.2079
     31 C          61.6064   86.3057   11.4131 C.3     1  UNL1        0.0760
     32 C          62.5833   87.3032   11.9616 C.3     1  UNL1        0.1461
     33 O          63.5375   86.5724   12.8590 O.3     1  UNL1       -0.3543
     34 C          63.1503   85.1232   12.8651 C.3     1  UNL1        0.1137
     35 C          64.3136   84.9787   13.8009 C.3     1  UNL1        0.0343
     36 C          61.9569   84.9584   11.9715 C.3     1  UNL1        0.0378
     37 C          63.0064   83.6438   13.0669 C.ar    1  UNL1        0.0296
     38 C          63.6546   82.6895   12.1081 C.ar    1  UNL1        0.0025
     39 C          63.5107   81.2101   12.3099 C.ar    1  UNL1        0.0295
     40 C          62.7186   80.6850   13.4704 C.ar    1  UNL1        0.1424
     41 F          62.5747   79.2056   13.6722 F       1  UNL1       -0.2041
     42 C          62.0705   81.6392   14.4292 C.ar    1  UNL1        0.0590
     43 C          62.2143   83.1187   14.2274 C.ar    1  UNL1        0.1405
     44 F          61.5662   84.0729   15.1862 F       1  UNL1       -0.2044
@<TRIPOS>BOND
     1    21    22    1
     2    22    19    1
     3    19    20    1
     4    19    13    1
     5    13    14   ar
     6    14    15   ar
     7    15    16   ar
     8    16     7    1
     9     7     8   ar
    10     8     9   ar
    11     9    10   ar
    12    10     1    1
    13     1     2    1
    14     2     3    1
    15     3     4    1
    16     4    23    1
    17    23    24   ar
    18    24    25   ar
    19    25    26   ar
    20    26    29    1
    21    29    30    1
    22    31    30    1
    23    31    32    1
    24    32    33    1
    25    33    34    1
    26    34    35    1
    27    34    37    1
    28    37    38   ar
    29    38    39   ar
    30    39    40   ar
    31    40    41    1
    32    40    42   ar
    33    42    43   ar
    34    43    44    1
    35    34    36    1
    36    26    27   ar
    37    27    28   ar
    38     4     5    1
    39     5     6    1
    40    10    11   ar
    41    11    12   ar
    42    16    17   ar
    43    17    18    2
    44    17    13   ar
    45    12     7   ar
    46     6     1    1
    47    28    23   ar
    48    36    31    1
    49    43    37   ar
@<TRIPOS>MOLECULE
*****
 44 49 0 0 0
SMALL
GASTEIGER

@<TRIPOS>ATOM
      1 N          60.1367   90.8311    5.4106 N.pl3   1  UNL1       -0.3041
      2 C          58.7564   91.3338    5.1075 C.3     1  UNL1        0.1122
      3 C          58.5263   92.2263    3.9239 C.3     1  UNL1        0.1122
      4 N          59.6767   92.6159    3.0436 N.pl3   1  UNL1       -0.3041
      5 C          61.0570   92.1132    3.3468 C.3     1  UNL1        0.1122
      6 C          61.2870   91.2208    4.5303 C.3     1  UNL1        0.1122
      7 C          60.8269   88.1539    8.9611 C.ar    1  UNL1        0.0699
      8 C          61.4054   89.5377    8.9416 C.ar    1  UNL1        0.0190
      9 C          61.1753   90.4300    7.7581 C.ar    1  UNL1        0.0160
     10 C          60.3668   89.9386    6.5942 C.ar    1  UNL1        0.0480
     11 C          59.7882   88.5549    6.6137 C.ar    1  UNL1        0.0160
     12 C          60.0183   87.6625    7.7972 C.ar    1  UNL1        0.0190
     13 N          61.8878   85.4743   11.5612 N.ar    1  UNL1       -0.2024
     14 N          60.9339   86.3020   12.3707 N.ar    1  UNL1       -0.1442
     15 C          60.4204   87.4064   11.4952 C.ar    1  UNL1        0.2073
     16 N          61.0569   87.2614   10.1447 N.ar    1  UNL1       -0.2398
     17 C          61.9638   86.0673   10.1855 C.ar    1  UNL1        0.3522
     18 O          62.7999   85.5560    9.0499 O.2     1  UNL1       -0.2444
     19 C          62.6346   84.2659   12.0429 C.3     1  UNL1        0.1099
     20 C          63.1190   84.1995   13.4609 C.3     1  UNL1        0.0265
     21 C          64.2964   82.8331   10.6516 C.3     1  UNL1        0.0021
     22 C          62.8970   83.1238   11.1065 C.3     1  UNL1        0.0245
     23 C          59.4467   93.5084    1.8601 C.ar    1  UNL1        0.0481
     24 C          59.9905   94.9063    1.8581 C.ar    1  UNL1        0.0176
     25 C          59.7605   95.7988    0.6745 C.ar    1  UNL1        0.0382
     26 C          58.9867   95.2933   -0.5069 C.ar    1  UNL1        0.1386
     27 C          58.4429   93.8952   -0.5047 C.ar    1  UNL1        0.0382
     28 C          58.6729   93.0028    0.6787 C.ar    1  UNL1        0.0176
     29 O          58.7567   96.1857   -1.6903 O.3     1  UNL1       -0.4754
     30 C          59.2646   95.7831   -3.0431 C.3     1  UNL1        0.2079
     31 C          60.5420   95.0060   -3.1639 C.3     1  UNL1        0.0760
     32 C          60.9656   94.1841   -4.3450 C.3     1  UNL1        0.1461
     33 O          62.3053   93.5844   -4.0360 O.3     1  UNL1       -0.3543
     34 C          62.7097   94.0357   -2.6637 C.3     1  UNL1        0.1137
     35 C          63.9377   93.2156   -2.9274 C.3     1  UNL1        0.0343
     36 C          61.6199   94.9142   -2.1248 C.3     1  UNL1        0.0378
     37 C          63.3708   94.3155   -1.3467 C.ar    1  UNL1        0.0296
     38 C          64.4802   95.3216   -1.2631 C.ar    1  UNL1        0.0025
     39 C          65.1412   95.6014    0.0540 C.ar    1  UNL1        0.0295
     40 C          64.6930   94.8751    1.2874 C.ar    1  UNL1        0.1424
     41 F          65.3541   95.1549    2.6045 F       1  UNL1       -0.2041
     42 C          63.5836   93.8690    1.2039 C.ar    1  UNL1        0.0590
     43 C          62.9225   93.5892   -0.1132 C.ar    1  UNL1        0.1405
     44 F          61.8131   92.5831   -0.1968 F       1  UNL1       -0.2044
@<TRIPOS>BOND
     1    21    22    1
     2    22    19    1
     3    19    20    1
     4    19    13    1
     5    13    14   ar
     6    14    15   ar
     7    15    16   ar
     8    16     7    1
     9     7     8   ar
    10     8     9   ar
    11     9    10   ar
    12    10     1    1
    13     1     2    1
    14     2     3    1
    15     3     4    1
    16     4    23    1
    17    23    24   ar
    18    24    25   ar
    19    25    26   ar
    20    26    29    1
    21    29    30    1
    22    31    30    1
    23    31    32    1
    24    32    33    1
    25    33    34    1
    26    34    35    1
    27    34    37    1
    28    37    38   ar
    29    38    39   ar
    30    39    40   ar
    31    40    41    1
    32    40    42   ar
    33    42    43   ar
    34    43    44    1
    35    34    36    1
    36    26    27   ar
    37    27    28   ar
    38     4     5    1
    39     5     6    1
    40    10    11   ar
    41    11    12   ar
    42    16    17   ar
    43    17    18    2
    44    17    13   ar
    45    12     7   ar
    46     6     1    1
    47    28    23   ar
    48    36    31    1
    49    43    37   ar
