@<TRIPOS>MOLECULE
*****
 30 34 0 0 0
SMALL
GASTEIGER

@<TRIPOS>ATOM
      1 C          64.2943   90.7770   13.4305 C.ar    1  UNL1        0.1383
      2 C          63.4933   90.3803   12.2258 C.ar    1  UNL1        0.0400
      3 C          63.1387   88.9402   12.0020 C.ar    1  UNL1        0.0397
      4 C          63.5851   87.8966   12.9827 C.ar    1  UNL1        0.1344
      5 C          64.3860   88.2933   14.1874 C.ar    1  UNL1        0.0149
      6 C          64.7406   89.7336   14.4112 C.ar    1  UNL1        0.0356
      7 C          64.8324   87.2499   15.1681 C.3     1  UNL1        0.0331
      8 C          64.4778   85.8096   14.9443 C.3     1  UNL1        0.0449
      9 C          63.6769   85.4129   13.7397 C.3     1  UNL1        0.1361
     10 C          64.1232   84.3695   14.7204 C.3     1  UNL1        0.0574
     11 C          63.7686   82.9293   14.4966 C.3     1  UNL1        0.0756
     12 N          62.9677   82.5326   13.2919 N.3     1  UNL1       -0.2737
     13 C          62.5214   83.5760   12.3112 C.3     1  UNL1        0.0756
     14 C          62.8759   85.0162   12.5350 C.3     1  UNL1        0.0574
     15 O          63.2305   86.4565   12.7589 O.3     1  UNL1       -0.4828
     16 C          62.6131   81.0923   13.0681 C.3     1  UNL1        0.0575
     17 C          62.8216   80.1094   11.9544 C.3     1  UNL1        0.0160
     18 C          62.1117   79.0556   12.7516 C.3     1  UNL1        0.0028
     19 C          61.9032   80.0386   13.8653 C.3     1  UNL1        0.0160
     20 O          64.6488   92.2172   13.6543 O.3     1  UNL1       -0.4791
     21 N          66.5304   94.6123   10.3417 N.3     1  UNL1       -0.1591
     22 C          65.7083   93.4003   10.0173 C.3     1  UNL1        0.0991
     23 C          65.0811   92.6020   11.1215 C.3     1  UNL1        0.0627
     24 C          65.2761   93.0156   12.5501 C.3     1  UNL1        0.1688
     25 C          66.0982   94.2275   12.8745 C.3     1  UNL1        0.0627
     26 C          66.7254   95.0258   11.7703 C.3     1  UNL1        0.0991
     27 C          67.7848   96.2090    8.1334 C.3     1  UNL1        0.1960
     28 S          67.1576   95.4107    9.2375 S.O2    1  UNL1        0.0457
     29 O          68.4030   94.5816    9.3454 O.2     1  UNL1       -0.1572
     30 O          65.9123   96.2397    9.1297 O.2     1  UNL1       -0.1572
@<TRIPOS>BOND
     1    27    28    1
     2    28    29    2
     3    28    30    2
     4    28    21    1
     5    21    22    1
     6    22    23    1
     7    23    24    1
     8    24    20    1
     9    20     1    1
    10     1     2   ar
    11     2     3   ar
    12     3     4   ar
    13     4     5   ar
    14     5     6   ar
    15     5     7    1
    16     7     8    1
    17     8     9    1
    18     9    10    1
    19    10    11    1
    20    11    12    1
    21    12    16    1
    22    16    17    1
    23    17    18    1
    24    18    19    1
    25    12    13    1
    26    13    14    1
    27     9    15    1
    28    24    25    1
    29    25    26    1
    30    26    21    1
    31     6     1   ar
    32    14     9    1
    33    15     4    1
    34    19    16    1
@<TRIPOS>MOLECULE
*****
 30 34 0 0 0
SMALL
GASTEIGER

@<TRIPOS>ATOM
      1 C          59.1803   90.6166    5.5564 C.ar    1  UNL1        0.1383
      2 C          58.4375   91.7460    4.9062 C.ar    1  UNL1        0.0400
      3 C          59.1225   92.6047    3.8848 C.ar    1  UNL1        0.0397
      4 C          60.5505   92.3340    3.5135 C.ar    1  UNL1        0.1344
      5 C          61.2933   91.2046    4.1637 C.ar    1  UNL1        0.0149
      6 C          60.6082   90.3459    5.1851 C.ar    1  UNL1        0.0356
      7 C          62.7212   90.9339    3.7924 C.3     1  UNL1        0.0331
      8 C          63.4063   91.7926    2.7709 C.3     1  UNL1        0.0449
      9 C          62.6635   92.9220    2.1207 C.3     1  UNL1        0.1361
     10 C          64.0913   92.6513    1.7495 C.3     1  UNL1        0.0574
     11 C          64.7764   93.5099    0.7281 C.3     1  UNL1        0.0756
     12 N          64.0336   94.6393    0.0779 N.3     1  UNL1       -0.2737
     13 C          62.6057   94.9100    0.4491 C.3     1  UNL1        0.0756
     14 C          61.9206   94.0513    1.4706 C.3     1  UNL1        0.0574
     15 O          61.2355   93.1927    2.4920 O.3     1  UNL1       -0.4828
     16 C          64.7187   95.4980   -0.9436 C.3     1  UNL1        0.0575
     17 C          65.7327   96.6022   -0.8929 C.3     1  UNL1        0.0160
     18 C          65.6875   96.7123   -2.3882 C.3     1  UNL1        0.0028
     19 C          64.6735   95.6081   -2.4389 C.3     1  UNL1        0.0160
     20 O          58.4953   89.7580    6.5778 O.3     1  UNL1       -0.4791
     21 N          60.9207   87.0617    9.2419 N.3     1  UNL1       -0.1591
     22 C          60.9692   88.5483    9.4355 C.3     1  UNL1        0.0991
     23 C          60.1607   89.4470    8.5475 C.3     1  UNL1        0.0627
     24 C          59.3038   88.8592    7.4659 C.3     1  UNL1        0.1688
     25 C          59.2552   87.3725    7.2722 C.3     1  UNL1        0.0627
     26 C          60.0637   86.4738    8.1602 C.3     1  UNL1        0.0991
     27 C          62.5376   85.2641   11.0179 C.3     1  UNL1        0.1960
     28 S          61.7291   86.1628   10.1299 S.O2    1  UNL1        0.0457
     29 O          60.9904   86.6818   11.3278 O.2     1  UNL1       -0.1572
     30 O          62.4679   85.6439    8.9321 O.2     1  UNL1       -0.1572
@<TRIPOS>BOND
     1    27    28    1
     2    28    29    2
     3    28    30    2
     4    28    21    1
     5    21    22    1
     6    22    23    1
     7    23    24    1
     8    24    20    1
     9    20     1    1
    10     1     2   ar
    11     2     3   ar
    12     3     4   ar
    13     4     5   ar
    14     5     6   ar
    15     5     7    1
    16     7     8    1
    17     8     9    1
    18     9    10    1
    19    10    11    1
    20    11    12    1
    21    12    16    1
    22    16    17    1
    23    17    18    1
    24    18    19    1
    25    12    13    1
    26    13    14    1
    27     9    15    1
    28    24    25    1
    29    25    26    1
    30    26    21    1
    31     6     1   ar
    32    14     9    1
    33    15     4    1
    34    19    16    1
@<TRIPOS>MOLECULE
*****
 30 34 0 0 0
SMALL
GASTEIGER

@<TRIPOS>ATOM
      1 C          64.2736   90.6004   13.8389 C.ar    1  UNL1        0.1383
      2 C          64.8013   89.7762   14.9757 C.ar    1  UNL1        0.0400
      3 C          64.6442   88.2846   14.9568 C.ar    1  UNL1        0.0397
      4 C          63.9594   87.6171   13.8011 C.ar    1  UNL1        0.1344
      5 C          63.4317   88.4413   12.6643 C.ar    1  UNL1        0.0149
      6 C          63.5888   89.9330   12.6833 C.ar    1  UNL1        0.0356
      7 C          62.7469   87.7739   11.5086 C.3     1  UNL1        0.0331
      8 C          62.5898   86.2822   11.4897 C.3     1  UNL1        0.0449
      9 C          63.1175   85.4580   12.6265 C.3     1  UNL1        0.1361
     10 C          62.4328   84.7906   11.4708 C.3     1  UNL1        0.0574
     11 C          62.2757   83.2990   11.4519 C.3     1  UNL1        0.0756
     12 N          62.8034   82.4748   12.5886 N.3     1  UNL1       -0.2737
     13 C          63.4881   83.1422   13.7443 C.3     1  UNL1        0.0756
     14 C          63.6452   84.6338   13.7632 C.3     1  UNL1        0.0574
     15 O          63.8023   86.1255   13.7822 O.3     1  UNL1       -0.4828
     16 C          62.6462   80.9832   12.5697 C.3     1  UNL1        0.0575
     17 C          62.7863   79.9150   11.5259 C.3     1  UNL1        0.0160
     18 C          62.4240   78.8737   12.5430 C.3     1  UNL1        0.0028
     19 C          62.2840   79.9418   13.5867 C.3     1  UNL1        0.0160
     20 O          64.4307   92.0920   13.8578 O.3     1  UNL1       -0.4791
     21 N          66.5158   94.1782   10.4593 N.3     1  UNL1       -0.1591
     22 C          66.7943   94.5883   11.8750 C.3     1  UNL1        0.0991
     23 C          66.0993   93.8929   13.0078 C.3     1  UNL1        0.0627
     24 C          65.1257   92.7874   12.7249 C.3     1  UNL1        0.1688
     25 C          64.8472   92.3773   11.3093 C.3     1  UNL1        0.0627
     26 C          65.5423   93.0727   10.1765 C.3     1  UNL1        0.0991
     27 C          67.9059   95.5689    8.1936 C.3     1  UNL1        0.1960
     28 S          67.2109   94.8736    9.3264 S.O2    1  UNL1        0.0457
     29 O          66.0469   95.8092    9.1865 O.2     1  UNL1       -0.1572
     30 O          68.3749   93.9380    9.4664 O.2     1  UNL1       -0.1572
@<TRIPOS>BOND
     1    27    28    1
     2    28    29    2
     3    28    30    2
     4    28    21    1
     5    21    22    1
     6    22    23    1
     7    23    24    1
     8    24    20    1
     9    20     1    1
    10     1     2   ar
    11     2     3   ar
    12     3     4   ar
    13     4     5   ar
    14     5     6   ar
    15     5     7    1
    16     7     8    1
    17     8     9    1
    18     9    10    1
    19    10    11    1
    20    11    12    1
    21    12    16    1
    22    16    17    1
    23    17    18    1
    24    18    19    1
    25    12    13    1
    26    13    14    1
    27     9    15    1
    28    24    25    1
    29    25    26    1
    30    26    21    1
    31     6     1   ar
    32    14     9    1
    33    15     4    1
    34    19    16    1
@<TRIPOS>MOLECULE
*****
 30 34 0 0 0
SMALL
GASTEIGER

@<TRIPOS>ATOM
      1 C          64.0547   89.1885   14.0004 C.ar    1  UNL1        0.1383
      2 C          63.3906   89.0696   12.6606 C.ar    1  UNL1        0.0400
      3 C          63.1253   87.7154   12.0727 C.ar    1  UNL1        0.0397
      4 C          63.5239   86.4801   12.8245 C.ar    1  UNL1        0.1344
      5 C          64.1880   86.5990   14.1642 C.ar    1  UNL1        0.0149
      6 C          64.4533   87.9533   14.7522 C.ar    1  UNL1        0.0356
      7 C          64.5866   85.3638   14.9160 C.3     1  UNL1        0.0331
      8 C          64.3213   84.0095   14.3280 C.3     1  UNL1        0.0449
      9 C          63.6572   83.8906   12.9883 C.3     1  UNL1        0.1361
     10 C          64.0559   82.6554   13.7400 C.3     1  UNL1        0.0574
     11 C          63.7905   81.3012   13.1521 C.3     1  UNL1        0.0756
     12 N          63.1265   81.1823   11.8123 N.3     1  UNL1       -0.2737
     13 C          62.7279   82.4175   11.0605 C.3     1  UNL1        0.0756
     14 C          62.9932   83.7717   11.6485 C.3     1  UNL1        0.0574
     15 O          63.2586   85.1259   12.2365 O.3     1  UNL1       -0.4828
     16 C          62.8612   79.8280   11.2243 C.3     1  UNL1        0.0575
     17 C          62.7066   79.2871    9.8338 C.3     1  UNL1        0.0160
     18 C          62.4859   77.9128   10.3929 C.3     1  UNL1        0.0028
     19 C          62.6405   78.4537   11.7835 C.3     1  UNL1        0.0160
     20 O          64.3200   90.5427   14.5884 O.3     1  UNL1       -0.4791
     21 N          65.9239   93.8486   11.9905 N.3     1  UNL1       -0.1591
     22 C          64.9933   92.8243   11.4118 C.3     1  UNL1        0.0991
     23 C          64.4587   91.7224   12.2777 C.3     1  UNL1        0.0627
     24 C          64.8547   91.6447   13.7224 C.3     1  UNL1        0.1688
     25 C          65.7852   92.6689   14.3012 C.3     1  UNL1        0.0627
     26 C          66.3198   93.7709   13.4353 C.3     1  UNL1        0.0991
     27 C          66.9932   96.0525   10.2587 C.3     1  UNL1        0.1960
     28 S          66.4585   94.9506   11.1246 S.O2    1  UNL1        0.0457
     29 O          66.2031   95.9385   12.2240 O.2     1  UNL1       -0.1572
     30 O          66.7139   93.9627   10.0252 O.2     1  UNL1       -0.1572
@<TRIPOS>BOND
     1    27    28    1
     2    28    29    2
     3    28    30    2
     4    28    21    1
     5    21    22    1
     6    22    23    1
     7    23    24    1
     8    24    20    1
     9    20     1    1
    10     1     2   ar
    11     2     3   ar
    12     3     4   ar
    13     4     5   ar
    14     5     6   ar
    15     5     7    1
    16     7     8    1
    17     8     9    1
    18     9    10    1
    19    10    11    1
    20    11    12    1
    21    12    16    1
    22    16    17    1
    23    17    18    1
    24    18    19    1
    25    12    13    1
    26    13    14    1
    27     9    15    1
    28    24    25    1
    29    25    26    1
    30    26    21    1
    31     6     1   ar
    32    14     9    1
    33    15     4    1
    34    19    16    1
@<TRIPOS>MOLECULE
*****
 30 34 0 0 0
SMALL
GASTEIGER

@<TRIPOS>ATOM
      1 C          63.4663   90.0171   13.6198 C.ar    1  UNL1        0.1383
      2 C          62.7752   89.8011   12.3061 C.ar    1  UNL1        0.0400
      3 C          62.6082   88.4117   11.7660 C.ar    1  UNL1        0.0397
      4 C          63.1322   87.2383   12.5396 C.ar    1  UNL1        0.1344
      5 C          63.8233   87.4542   13.8533 C.ar    1  UNL1        0.0149
      6 C          63.9903   88.8437   14.3934 C.ar    1  UNL1        0.0356
      7 C          64.3473   86.2809   14.6269 C.3     1  UNL1        0.0331
      8 C          64.1803   84.8914   14.0869 C.3     1  UNL1        0.0449
      9 C          63.4893   84.6754   12.7732 C.3     1  UNL1        0.1361
     10 C          64.0133   83.5020   13.5468 C.3     1  UNL1        0.0574
     11 C          63.8463   82.1127   13.0067 C.3     1  UNL1        0.0756
     12 N          63.1552   81.8967   11.6930 N.3     1  UNL1       -0.2737
     13 C          62.6312   83.0701   10.9194 C.3     1  UNL1        0.0756
     14 C          62.7982   84.4594   11.4595 C.3     1  UNL1        0.0574
     15 O          62.9652   85.8489   11.9996 O.3     1  UNL1       -0.4828
     16 C          62.9882   80.5072   11.1529 C.3     1  UNL1        0.0575
     17 C          63.0339   79.8872    9.7879 C.3     1  UNL1        0.0160
     18 C          62.7520   78.5423   10.3893 C.3     1  UNL1        0.0028
     19 C          62.7063   79.1623   11.7544 C.3     1  UNL1        0.0160
     20 O          63.6333   91.4064   14.1599 O.3     1  UNL1       -0.4791
     21 N          67.7445   92.9754   15.1012 N.3     1  UNL1       -0.1591
     22 C          66.7504   92.7669   16.2050 C.3     1  UNL1        0.0991
     23 C          65.3801   92.2439   15.8912 C.3     1  UNL1        0.0627
     24 C          65.0038   91.9294   14.4736 C.3     1  UNL1        0.1688
     25 C          65.9978   92.1379   13.3699 C.3     1  UNL1        0.0627
     26 C          67.3682   92.6609   13.6837 C.3     1  UNL1        0.0991
     27 C          70.4854   94.0214   15.7287 C.3     1  UNL1        0.1960
     28 S          69.1150   93.4985   15.4150 S.O2    1  UNL1        0.0457
     29 O          68.5301   94.4068   16.4556 O.2     1  UNL1       -0.1572
     30 O          69.6998   92.5902   14.3744 O.2     1  UNL1       -0.1572
@<TRIPOS>BOND
     1    27    28    1
     2    28    29    2
     3    28    30    2
     4    28    21    1
     5    21    22    1
     6    22    23    1
     7    23    24    1
     8    24    20    1
     9    20     1    1
    10     1     2   ar
    11     2     3   ar
    12     3     4   ar
    13     4     5   ar
    14     5     6   ar
    15     5     7    1
    16     7     8    1
    17     8     9    1
    18     9    10    1
    19    10    11    1
    20    11    12    1
    21    12    16    1
    22    16    17    1
    23    17    18    1
    24    18    19    1
    25    12    13    1
    26    13    14    1
    27     9    15    1
    28    24    25    1
    29    25    26    1
    30    26    21    1
    31     6     1   ar
    32    14     9    1
    33    15     4    1
    34    19    16    1
@<TRIPOS>MOLECULE
*****
 30 34 0 0 0
SMALL
GASTEIGER

@<TRIPOS>ATOM
      1 C          63.6073   87.6388   14.9213 C.ar    1  UNL1        0.1383
      2 C          63.0880   87.5520   13.5167 C.ar    1  UNL1        0.0400
      3 C          63.4080   88.6359   12.5305 C.ar    1  UNL1        0.0397
      4 C          64.2473   89.8067   12.9489 C.ar    1  UNL1        0.1344
      5 C          64.7665   89.8935   14.3535 C.ar    1  UNL1        0.0149
      6 C          64.4465   88.8095   15.3397 C.ar    1  UNL1        0.0356
      7 C          65.6057   91.0642   14.7719 C.3     1  UNL1        0.0331
      8 C          65.9257   92.1483   13.7857 C.3     1  UNL1        0.0449
      9 C          65.4065   92.0615   12.3811 C.3     1  UNL1        0.1361
     10 C          66.2457   93.2322   12.7995 C.3     1  UNL1        0.0574
     11 C          66.5657   94.3161   11.8133 C.3     1  UNL1        0.0756
     12 N          66.0465   94.2294   10.4087 N.3     1  UNL1       -0.2737
     13 C          65.2073   93.0587    9.9903 C.3     1  UNL1        0.0756
     14 C          64.8873   91.9747   10.9765 C.3     1  UNL1        0.0574
     15 O          64.5672   90.8907   11.9627 O.3     1  UNL1       -0.4828
     16 C          66.3665   95.3134    9.4225 C.3     1  UNL1        0.0575
     17 C          66.4220   96.8115    9.4738 C.3     1  UNL1        0.0160
     18 C          66.8191   96.8464    8.0278 C.3     1  UNL1        0.0028
     19 C          66.7635   95.3483    7.9764 C.3     1  UNL1        0.0160
     20 O          63.2873   86.5548   15.9075 O.3     1  UNL1       -0.4791
     21 N          62.8920   82.2932   14.5175 N.3     1  UNL1       -0.1591
     22 C          61.6866   83.0348   15.0143 C.3     1  UNL1        0.0991
     23 C          61.8184   84.4553   15.4777 C.3     1  UNL1        0.0627
     24 C          63.1556   85.1342   15.4441 C.3     1  UNL1        0.1688
     25 C          64.3610   84.3926   14.9473 C.3     1  UNL1        0.0627
     26 C          64.2292   82.9721   14.4839 C.3     1  UNL1        0.0991
     27 C          62.6286   79.4521   13.5908 C.3     1  UNL1        0.1960
     28 S          62.7603   80.8726   14.0541 S.O2    1  UNL1        0.0457
     29 O          64.2499   80.7114   14.1246 O.2     1  UNL1       -0.1572
     30 O          61.2707   81.0337   13.9836 O.2     1  UNL1       -0.1572
@<TRIPOS>BOND
     1    27    28    1
     2    28    29    2
     3    28    30    2
     4    28    21    1
     5    21    22    1
     6    22    23    1
     7    23    24    1
     8    24    20    1
     9    20     1    1
    10     1     2   ar
    11     2     3   ar
    12     3     4   ar
    13     4     5   ar
    14     5     6   ar
    15     5     7    1
    16     7     8    1
    17     8     9    1
    18     9    10    1
    19    10    11    1
    20    11    12    1
    21    12    16    1
    22    16    17    1
    23    17    18    1
    24    18    19    1
    25    12    13    1
    26    13    14    1
    27     9    15    1
    28    24    25    1
    29    25    26    1
    30    26    21    1
    31     6     1   ar
    32    14     9    1
    33    15     4    1
    34    19    16    1
