@<TRIPOS>MOLECULE
*****
 23 25 0 0 0
SMALL
GASTEIGER

@<TRIPOS>ATOM
      1 C          63.3380   84.1893   13.9118 C.3     1  UNL1        0.1883
      2 C          63.2464   84.3710   12.4257 C.ar    1  UNL1        0.0195
      3 C          64.0292   83.4763   11.5110 C.ar    1  UNL1        0.0002
      4 C          63.9376   83.6581   10.0249 C.ar    1  UNL1        0.0135
      5 C          63.0632   84.7345    9.4534 C.ar    1  UNL1        0.0850
      6 CL         62.9715   84.9162    7.9673 Cl      1  UNL1       -0.0799
      7 C          62.2803   85.6292   10.3681 C.ar    1  UNL1        0.1504
      8 F          61.4058   86.7056    9.7966 F       1  UNL1       -0.2033
      9 C          62.3719   85.4475   11.8542 C.ar    1  UNL1        0.0297
     10 O          64.3617   84.9524   14.6990 O.3     1  UNL1       -0.4747
     11 F          64.3127   90.1480   14.6408 F       1  UNL1       -0.2041
     12 C          63.9687   88.8531   15.3153 C.ar    1  UNL1        0.1432
     13 C          63.2561   88.8612   16.6352 C.ar    1  UNL1        0.0298
     14 C          62.9121   87.5663   17.3098 C.ar    1  UNL1        0.0054
     15 C          63.2806   86.2634   16.6644 C.ar    1  UNL1        0.0371
     16 C          63.9932   86.2553   15.3445 C.ar    1  UNL1        0.1411
     17 C          64.3372   87.5502   14.6700 C.ar    1  UNL1        0.0665
     18 C          62.4058   83.2445   14.6108 C.3     1  UNL1        0.0510
     19 C          62.2774   81.8280   14.1343 C.3     1  UNL1        0.0354
     20 C          63.2362   80.7804   13.6512 C.3     1  UNL1        0.0700
     21 N          62.0958   79.8248   13.4605 N.3     1  UNL1       -0.2974
     22 C          61.1371   80.8723   13.9437 C.3     1  UNL1        0.0700
     23 H          62.1424   78.9971   14.0548 H       1  UNL1        0.1232
@<TRIPOS>BOND
     1    11    12    1
     2    12    13   ar
     3    13    14   ar
     4    14    15   ar
     5    15    16   ar
     6    16    10    1
     7    10     1    1
     8     1    18    1
     9    18    19    1
    10    19    20    1
    11    20    21    1
    12    21    22    1
    13     1     2    1
    14     2     3   ar
    15     3     4   ar
    16     4     5   ar
    17     5     6    1
    18     5     7   ar
    19     7     8    1
    20     7     9   ar
    21    16    17   ar
    22    17    12   ar
    23    22    19    1
    24     9     2   ar
    25    21    23    1
@<TRIPOS>MOLECULE
*****
 23 25 0 0 0
SMALL
GASTEIGER

@<TRIPOS>ATOM
      1 C          62.0747   86.5468   10.6846 C.3     1  UNL1        0.1883
      2 C          62.6131   85.2838   11.2887 C.ar    1  UNL1        0.0195
      3 C          62.5811   85.0908   12.7759 C.ar    1  UNL1        0.0002
      4 C          63.1195   83.8278   13.3800 C.ar    1  UNL1        0.0135
      5 C          63.6899   82.7578   12.4971 C.ar    1  UNL1        0.0850
      6 CL         64.2283   81.4949   13.1012 Cl      1  UNL1       -0.0799
      7 C          63.7220   82.9508   11.0098 C.ar    1  UNL1        0.1504
      8 F          64.2924   81.8809   10.1268 F       1  UNL1       -0.2033
      9 C          63.1836   84.2138   10.4056 C.ar    1  UNL1        0.0297
     10 O          61.6763   87.6908   11.5691 O.3     1  UNL1       -0.4747
     11 F          65.0285   90.8977   13.9097 F       1  UNL1       -0.2041
     12 C          64.1570   90.5602   12.7364 C.ar    1  UNL1        0.1432
     13 C          64.0901   91.4886   11.5602 C.ar    1  UNL1        0.0298
     14 C          63.2186   91.1511   10.3869 C.ar    1  UNL1        0.0054
     15 C          62.4140   89.8852   10.3899 C.ar    1  UNL1        0.0371
     16 C          62.4809   88.9568   11.5661 C.ar    1  UNL1        0.1411
     17 C          63.3524   89.2943   12.7393 C.ar    1  UNL1        0.0665
     18 C          61.9348   86.6657    9.1958 C.3     1  UNL1        0.0510
     19 C          60.5717   86.6929    8.5704 C.3     1  UNL1        0.0354
     20 C          59.8860   85.9141    7.4873 C.3     1  UNL1        0.0700
     21 N          58.6440   86.7314    7.6859 N.3     1  UNL1       -0.2974
     22 C          59.3298   87.5103    8.7690 C.3     1  UNL1        0.0700
     23 H          57.8384   86.1938    8.0059 H       1  UNL1        0.1232
@<TRIPOS>BOND
     1    11    12    1
     2    12    13   ar
     3    13    14   ar
     4    14    15   ar
     5    15    16   ar
     6    16    10    1
     7    10     1    1
     8     1    18    1
     9    18    19    1
    10    19    20    1
    11    20    21    1
    12    21    22    1
    13     1     2    1
    14     2     3   ar
    15     3     4   ar
    16     4     5   ar
    17     5     6    1
    18     5     7   ar
    19     7     8    1
    20     7     9   ar
    21    16    17   ar
    22    17    12   ar
    23    22    19    1
    24     9     2   ar
    25    21    23    1
@<TRIPOS>MOLECULE
*****
 23 25 0 0 0
SMALL
GASTEIGER

@<TRIPOS>ATOM
      1 C          62.0544   87.0757   10.7265 C.3     1  UNL1        0.1883
      2 C          62.6691   88.3160   11.3044 C.ar    1  UNL1        0.0195
      3 C          62.6098   89.6071   10.5433 C.ar    1  UNL1        0.0002
      4 C          63.2245   90.8473   11.1212 C.ar    1  UNL1        0.0135
      5 C          63.8984   90.7964   12.4603 C.ar    1  UNL1        0.0850
      6 CL         64.5130   92.0367   13.0383 Cl      1  UNL1       -0.0799
      7 C          63.9576   89.5052   13.2216 C.ar    1  UNL1        0.1504
      8 F          64.6315   89.4543   14.5607 F       1  UNL1       -0.2033
      9 C          63.3430   88.2650   12.6436 C.ar    1  UNL1        0.0297
     10 O          61.5952   85.9733   11.6340 O.3     1  UNL1       -0.4747
     11 F          64.0193   82.9965   15.1358 F       1  UNL1       -0.2041
     12 C          63.7282   83.3453   13.7063 C.ar    1  UNL1        0.1432
     13 C          64.3582   82.5547   12.5981 C.ar    1  UNL1        0.0298
     14 C          64.0672   82.9036   11.1686 C.ar    1  UNL1        0.0054
     15 C          63.1462   84.0431   10.8472 C.ar    1  UNL1        0.0371
     16 C          62.5163   84.8337   11.9554 C.ar    1  UNL1        0.1411
     17 C          62.8073   84.4848   13.3849 C.ar    1  UNL1        0.0665
     18 C          61.8990   86.9380    9.2408 C.3     1  UNL1        0.0510
     19 C          60.5297   86.8469    8.6353 C.3     1  UNL1        0.0354
     20 C          59.2399   87.5918    8.8125 C.3     1  UNL1        0.0700
     21 N          58.5932   86.7181    7.7789 N.3     1  UNL1       -0.2974
     22 C          59.8831   85.9732    7.6016 C.3     1  UNL1        0.0700
     23 H          58.2833   87.2183    6.9457 H       1  UNL1        0.1232
@<TRIPOS>BOND
     1    11    12    1
     2    12    13   ar
     3    13    14   ar
     4    14    15   ar
     5    15    16   ar
     6    16    10    1
     7    10     1    1
     8     1    18    1
     9    18    19    1
    10    19    20    1
    11    20    21    1
    12    21    22    1
    13     1     2    1
    14     2     3   ar
    15     3     4   ar
    16     4     5   ar
    17     5     6    1
    18     5     7   ar
    19     7     8    1
    20     7     9   ar
    21    16    17   ar
    22    17    12   ar
    23    22    19    1
    24     9     2   ar
    25    21    23    1
@<TRIPOS>MOLECULE
*****
 23 25 0 0 0
SMALL
GASTEIGER

@<TRIPOS>ATOM
      1 C          62.0329   87.0872   10.6991 C.3     1  UNL1        0.1883
      2 C          62.6547   88.3541   11.2074 C.ar    1  UNL1        0.0195
      3 C          63.2620   88.3940   12.5784 C.ar    1  UNL1        0.0002
      4 C          63.8838   89.6609   13.0866 C.ar    1  UNL1        0.0135
      5 C          63.8984   90.8878   12.2239 C.ar    1  UNL1        0.0850
      6 CL         64.5203   92.1547   12.7322 Cl      1  UNL1       -0.0799
      7 C          63.2911   90.8480   10.8529 C.ar    1  UNL1        0.1504
      8 F          63.3057   92.0750    9.9902 F       1  UNL1       -0.2033
      9 C          62.6693   89.5811   10.3446 C.ar    1  UNL1        0.0297
     10 O          61.5767   86.0352   11.6661 O.3     1  UNL1       -0.4747
     11 F          64.5595   82.0774   10.1042 F       1  UNL1       -0.2041
     12 C          63.9633   82.8973   11.2098 C.ar    1  UNL1        0.1432
     13 C          64.2622   82.5582   12.6401 C.ar    1  UNL1        0.0298
     14 C          63.6660   83.3781   13.7457 C.ar    1  UNL1        0.0054
     15 C          62.7708   84.5370   13.4210 C.ar    1  UNL1        0.0371
     16 C          62.4719   84.8761   11.9908 C.ar    1  UNL1        0.1411
     17 C          63.0681   84.0563   10.8852 C.ar    1  UNL1        0.0665
     18 C          61.8671   86.8725    9.2238 C.3     1  UNL1        0.0510
     19 C          60.4937   86.8211    8.6230 C.3     1  UNL1        0.0354
     20 C          59.2212   87.5909    8.8181 C.3     1  UNL1        0.0700
     21 N          58.5514   86.7486    7.7733 N.3     1  UNL1       -0.2974
     22 C          59.8239   85.9787    7.5781 C.3     1  UNL1        0.0700
     23 H          58.2490   87.2689    6.9497 H       1  UNL1        0.1232
@<TRIPOS>BOND
     1    11    12    1
     2    12    13   ar
     3    13    14   ar
     4    14    15   ar
     5    15    16   ar
     6    16    10    1
     7    10     1    1
     8     1    18    1
     9    18    19    1
    10    19    20    1
    11    20    21    1
    12    21    22    1
    13     1     2    1
    14     2     3   ar
    15     3     4   ar
    16     4     5   ar
    17     5     6    1
    18     5     7   ar
    19     7     8    1
    20     7     9   ar
    21    16    17   ar
    22    17    12   ar
    23    22    19    1
    24     9     2   ar
    25    21    23    1
@<TRIPOS>MOLECULE
*****
 23 25 0 0 0
SMALL
GASTEIGER

@<TRIPOS>ATOM
      1 C          62.4017   86.3616   11.3220 C.3     1  UNL1        0.1883
      2 C          62.1520   85.9082    9.9141 C.ar    1  UNL1        0.0195
      3 C          63.2027   85.1295    9.1795 C.ar    1  UNL1        0.0002
      4 C          62.9531   84.6761    7.7716 C.ar    1  UNL1        0.0135
      5 C          61.6528   85.0014    7.0983 C.ar    1  UNL1        0.0850
      6 CL         61.4031   84.5480    5.6905 Cl      1  UNL1       -0.0799
      7 C          60.6020   85.7801    7.8329 C.ar    1  UNL1        0.1504
      8 F          59.3017   86.1054    7.1597 F       1  UNL1       -0.2033
      9 C          60.8517   86.2335    9.2408 C.ar    1  UNL1        0.0297
     10 O          61.7733   87.6273   11.8248 O.3     1  UNL1       -0.4747
     11 F          64.7738   91.4274   13.7108 F       1  UNL1       -0.2041
     12 C          63.9778   90.8389   12.5838 C.ar    1  UNL1        0.1432
     13 C          63.8860   91.5620   11.2728 C.ar    1  UNL1        0.0298
     14 C          63.0900   90.9736   10.1459 C.ar    1  UNL1        0.0054
     15 C          62.3857   89.6620   10.3298 C.ar    1  UNL1        0.0371
     16 C          62.4775   88.9389   11.6408 C.ar    1  UNL1        0.1411
     17 C          63.2735   89.5274   12.7678 C.ar    1  UNL1        0.0665
     18 C          63.2798   85.5492   12.2270 C.3     1  UNL1        0.0510
     19 C          62.8375   84.1887   12.6779 C.3     1  UNL1        0.0354
     20 C          62.6090   82.8694   12.0017 C.3     1  UNL1        0.0700
     21 N          62.2120   82.2646   13.3157 N.3     1  UNL1       -0.2974
     22 C          62.4406   83.5839   13.9920 C.3     1  UNL1        0.0700
     23 H          62.8315   81.5200   13.6354 H       1  UNL1        0.1232
@<TRIPOS>BOND
     1    11    12    1
     2    12    13   ar
     3    13    14   ar
     4    14    15   ar
     5    15    16   ar
     6    16    10    1
     7    10     1    1
     8     1    18    1
     9    18    19    1
    10    19    20    1
    11    20    21    1
    12    21    22    1
    13     1     2    1
    14     2     3   ar
    15     3     4   ar
    16     4     5   ar
    17     5     6    1
    18     5     7   ar
    19     7     8    1
    20     7     9   ar
    21    16    17   ar
    22    17    12   ar
    23    22    19    1
    24     9     2   ar
    25    21    23    1
@<TRIPOS>MOLECULE
*****
 23 25 0 0 0
SMALL
GASTEIGER

@<TRIPOS>ATOM
      1 C          62.3567   88.5327   11.1680 C.3     1  UNL1        0.1883
      2 C          63.2355   89.2680   12.1360 C.ar    1  UNL1        0.0195
      3 C          63.6949   88.5927   13.3941 C.ar    1  UNL1        0.0002
      4 C          64.5738   89.3279   14.3621 C.ar    1  UNL1        0.0135
      5 C          64.9933   90.7385   14.0720 C.ar    1  UNL1        0.0850
      6 CL         65.8722   91.4738   15.0400 Cl      1  UNL1       -0.0799
      7 C          64.5339   91.4139   12.8138 C.ar    1  UNL1        0.1504
      8 F          64.9533   92.8245   12.5237 F       1  UNL1       -0.2033
      9 C          63.6550   90.6787   11.8459 C.ar    1  UNL1        0.0297
     10 O          62.5878   87.0745   10.9037 O.3     1  UNL1       -0.4747
     11 F          58.8362   86.2661    7.4004 F       1  UNL1       -0.2041
     12 C          60.2479   86.0589    7.8633 C.ar    1  UNL1        0.1432
     13 C          61.1955   85.2404    7.0374 C.ar    1  UNL1        0.0298
     14 C          62.6072   85.0332    7.5003 C.ar    1  UNL1        0.0054
     15 C          63.0713   85.6446    8.7890 C.ar    1  UNL1        0.0371
     16 C          62.1237   86.4631    9.6149 C.ar    1  UNL1        0.1411
     17 C          60.7120   86.6702    9.1520 C.ar    1  UNL1        0.0665
     18 C          61.2466   89.2559   10.4644 C.3     1  UNL1        0.0510
     19 C          60.0216   89.6706   11.2242 C.3     1  UNL1        0.0354
     20 C          59.2332   90.9400   11.3540 C.3     1  UNL1        0.0700
     21 N          58.2892   90.2571   12.2987 N.3     1  UNL1       -0.2974
     22 C          59.0776   88.9876   12.1689 C.3     1  UNL1        0.0700
     23 H          57.3315   90.1896   11.9542 H       1  UNL1        0.1232
@<TRIPOS>BOND
     1    11    12    1
     2    12    13   ar
     3    13    14   ar
     4    14    15   ar
     5    15    16   ar
     6    16    10    1
     7    10     1    1
     8     1    18    1
     9    18    19    1
    10    19    20    1
    11    20    21    1
    12    21    22    1
    13     1     2    1
    14     2     3   ar
    15     3     4   ar
    16     4     5   ar
    17     5     6    1
    18     5     7   ar
    19     7     8    1
    20     7     9   ar
    21    16    17   ar
    22    17    12   ar
    23    22    19    1
    24     9     2   ar
    25    21    23    1
@<TRIPOS>MOLECULE
*****
 23 25 0 0 0
SMALL
GASTEIGER

@<TRIPOS>ATOM
      1 C          62.1857   85.7209   11.3372 C.3     1  UNL1        0.1883
      2 C          62.0730   85.4584    9.8646 C.ar    1  UNL1        0.0195
      3 C          63.1875   84.7646    9.1390 C.ar    1  UNL1        0.0002
      4 C          63.0748   84.5020    7.6665 C.ar    1  UNL1        0.0135
      5 C          61.8476   84.9332    6.9196 C.ar    1  UNL1        0.0850
      6 CL         61.7349   84.6707    5.4470 Cl      1  UNL1       -0.0799
      7 C          60.7330   85.6271    7.6451 C.ar    1  UNL1        0.1504
      8 F          59.5058   86.0583    6.8982 F       1  UNL1       -0.2033
      9 C          60.8457   85.8896    9.1177 C.ar    1  UNL1        0.0297
     10 O          61.2608   86.7000   11.9974 O.3     1  UNL1       -0.4747
     11 F          58.8035   91.2494   11.4829 F       1  UNL1       -0.2041
     12 C          60.0385   90.4142   11.3184 C.ar    1  UNL1        0.1432
     13 C          61.2800   91.0184   10.7322 C.ar    1  UNL1        0.0298
     14 C          62.5150   90.1832   10.5677 C.ar    1  UNL1        0.0054
     15 C          62.5087   88.7438   10.9894 C.ar    1  UNL1        0.0371
     16 C          61.2672   88.1395   11.5756 C.ar    1  UNL1        0.1411
     17 C          60.0322   88.9747   11.7401 C.ar    1  UNL1        0.0665
     18 C          63.2234   85.0044   12.1495 C.3     1  UNL1        0.0510
     19 C          62.8042   84.0551   13.2326 C.3     1  UNL1        0.0354
     20 C          62.3306   84.2033   14.6481 C.3     1  UNL1        0.0700
     21 N          62.2114   82.7126   14.7643 N.3     1  UNL1       -0.2974
     22 C          62.6850   82.5644   13.3488 C.3     1  UNL1        0.0700
     23 H          61.2593   82.3820   14.9216 H       1  UNL1        0.1232
@<TRIPOS>BOND
     1    11    12    1
     2    12    13   ar
     3    13    14   ar
     4    14    15   ar
     5    15    16   ar
     6    16    10    1
     7    10     1    1
     8     1    18    1
     9    18    19    1
    10    19    20    1
    11    20    21    1
    12    21    22    1
    13     1     2    1
    14     2     3   ar
    15     3     4   ar
    16     4     5   ar
    17     5     6    1
    18     5     7   ar
    19     7     8    1
    20     7     9   ar
    21    16    17   ar
    22    17    12   ar
    23    22    19    1
    24     9     2   ar
    25    21    23    1
@<TRIPOS>MOLECULE
*****
 23 25 0 0 0
SMALL
GASTEIGER

@<TRIPOS>ATOM
      1 C          63.0271   85.4785   12.1929 C.3     1  UNL1        0.1883
      2 C          62.2172   85.9174   11.0091 C.ar    1  UNL1        0.0195
      3 C          62.6327   85.5148    9.6252 C.ar    1  UNL1        0.0002
      4 C          61.8229   85.9537    8.4414 C.ar    1  UNL1        0.0135
      5 C          60.5974   86.7952    8.6415 C.ar    1  UNL1        0.0850
      6 CL         59.7875   87.2341    7.4576 Cl      1  UNL1       -0.0799
      7 C          60.1818   87.1979   10.0254 C.ar    1  UNL1        0.1504
      8 F          58.9563   88.0394   10.2255 F       1  UNL1       -0.2033
      9 C          60.9917   86.7589   11.2092 C.ar    1  UNL1        0.0297
     10 O          63.2575   86.4224   13.3356 O.3     1  UNL1       -0.4747
     11 F          62.7401   90.5700   10.2485 F       1  UNL1       -0.2041
     12 C          63.2300   89.9541   11.5255 C.ar    1  UNL1        0.1432
     13 C          63.9510   90.7962   12.5359 C.ar    1  UNL1        0.0298
     14 C          64.4409   90.1803   13.8129 C.ar    1  UNL1        0.0054
     15 C          64.2097   88.7224   14.0795 C.ar    1  UNL1        0.0371
     16 C          63.4887   87.8804   13.0690 C.ar    1  UNL1        0.1411
     17 C          62.9988   88.4963   11.7920 C.ar    1  UNL1        0.0665
     18 C          63.6065   84.0954   12.2340 C.3     1  UNL1        0.0510
     19 C          63.0922   83.0960   13.2273 C.3     1  UNL1        0.0354
     20 C          62.7246   83.1380   14.6809 C.3     1  UNL1        0.0700
     21 N          62.3649   81.6826   14.6320 N.3     1  UNL1       -0.2974
     22 C          62.7325   81.6406   13.1784 C.3     1  UNL1        0.0700
     23 H          61.3806   81.4904   14.8183 H       1  UNL1        0.1232
@<TRIPOS>BOND
     1    11    12    1
     2    12    13   ar
     3    13    14   ar
     4    14    15   ar
     5    15    16   ar
     6    16    10    1
     7    10     1    1
     8     1    18    1
     9    18    19    1
    10    19    20    1
    11    20    21    1
    12    21    22    1
    13     1     2    1
    14     2     3   ar
    15     3     4   ar
    16     4     5   ar
    17     5     6    1
    18     5     7   ar
    19     7     8    1
    20     7     9   ar
    21    16    17   ar
    22    17    12   ar
    23    22    19    1
    24     9     2   ar
    25    21    23    1
