@<TRIPOS>MOLECULE
*****
 44 49 0 0 0
SMALL
GASTEIGER

@<TRIPOS>ATOM
      1 N          60.3349   88.8381   10.2581 N.am    1  UNL1       -0.2222
      2 C          60.0036   89.9067    9.2589 C.2     1  UNL1        0.3219
      3 O          59.4757   91.2750    9.5737 O.2     1  UNL1       -0.2512
      4 N          60.2930   89.3668    7.8897 N.am    1  UNL1       -0.1907
      5 C          60.8031   87.9645    8.0426 C.2     1  UNL1        0.2529
      6 O          61.2150   87.0496    6.9277 O.2     1  UNL1       -0.2724
      7 C          60.8290   87.6377    9.5064 C.3     1  UNL1        0.1391
      8 C          60.7996   87.4558   10.9950 C.3     1  UNL1        0.0449
      9 C          61.2419   86.1568   11.6007 C.3     1  UNL1        0.0746
     10 N          61.7137   85.0397   10.7178 N.3     1  UNL1       -0.2676
     11 C          61.7431   85.2216    9.2292 C.3     1  UNL1        0.0746
     12 C          61.3008   86.5206    8.6235 C.3     1  UNL1        0.0449
     13 C          61.2357   89.4707   14.0710 C.ar    1  UNL1        0.2293
     14 C          61.3742   89.3587   12.5816 C.ar    1  UNL1        0.0924
     15 C          60.1964   88.9501   11.7475 C.ar    1  UNL1        0.1453
     16 N          58.8800   88.6537   12.4028 N.ar    1  UNL1       -0.2084
     17 C          58.7414   88.7657   13.8921 C.ar    1  UNL1        0.2027
     18 N          59.9193   89.1743   14.7263 N.ar    1  UNL1       -0.1892
     19 C          63.5960   90.5396   14.2607 C.3     1  UNL1        0.2542
     20 O          62.4134   89.8793   14.9052 O.3     1  UNL1       -0.4560
     21 C          60.1052   90.1003    6.5949 C.ar    1  UNL1        0.0622
     22 C          61.2942   90.4386    5.7453 C.ar    1  UNL1        0.0154
     23 C          61.1064   91.1721    4.4504 C.ar    1  UNL1        0.0013
     24 C          59.7297   91.5675    4.0052 C.ar    1  UNL1        0.0009
     25 C          58.5406   91.2292    4.8548 C.ar    1  UNL1        0.0013
     26 C          58.7285   90.4957    6.1497 C.ar    1  UNL1        0.0154
     27 C          59.5419   92.3011    2.7103 C.ar    1  UNL1        0.0106
     28 C          58.1989   92.3120    2.0424 C.ar    1  UNL1        0.0009
     29 C          58.0111   93.0455    0.7476 C.ar    1  UNL1        0.0012
     30 C          59.1665   93.7682    0.1207 C.ar    1  UNL1        0.0148
     31 C          60.5095   93.7573    0.7886 C.ar    1  UNL1        0.0125
     32 C          60.6973   93.0238    2.0834 C.ar    1  UNL1        0.0577
     33 CL         62.0403   93.0129    2.7513 Cl      1  UNL1       -0.0822
     34 C          58.9787   94.5018   -1.1741 C.2     1  UNL1        0.0729
     35 O          59.9138   94.2520   -2.3201 O.co2   1  UNL1       -0.5446
     36 O          57.8557   95.4851   -1.3230 O.co2   1  UNL1       -0.5446
     37 C          62.1560   83.7407   11.3236 C.3     1  UNL1        0.1183
     38 C          62.8847   83.7341   12.6346 C.ar    1  UNL1        0.0712
     39 N          63.7525   84.8965   13.0162 N.ar    1  UNL1       -0.2471
     40 C          64.4812   84.8899   14.3274 C.ar    1  UNL1        0.0985
     41 C          64.3420   83.7209   15.2569 C.ar    1  UNL1        0.0203
     42 C          63.4742   82.5585   14.8753 C.ar    1  UNL1       -0.0015
     43 C          62.7455   82.5650   13.5642 C.ar    1  UNL1       -0.0069
     44 C          61.8777   81.4026   13.1826 C.3     1  UNL1        0.0323
@<TRIPOS>UNITY_ATOM_ATTR
35 1
charge -1
@<TRIPOS>BOND
     1    19    20    1
     2    20    13    1
     3    13    14   ar
     4    14    15   ar
     5    15     1    1
     6     1     2   am
     7     2     3    2
     8     2     4   am
     9     4    21    1
    10    21    22   ar
    11    22    23   ar
    12    23    24   ar
    13    24    27    1
    14    27    28   ar
    15    28    29   ar
    16    29    30   ar
    17    30    34    1
    18    34    35   ar
    19    34    36   ar
    20    30    31   ar
    21    31    32   ar
    22    32    33    1
    23    24    25   ar
    24    25    26   ar
    25     4     5   am
    26     5     6    2
    27     5     7    1
    28     7     8    1
    29     8     9    1
    30     9    10    1
    31    10    37    1
    32    37    38    1
    33    38    39   ar
    34    39    40   ar
    35    40    41   ar
    36    41    42   ar
    37    42    43   ar
    38    43    44    1
    39    10    11    1
    40    11    12    1
    41    15    16   ar
    42    16    17   ar
    43    17    18   ar
    44    18    13   ar
    45     7     1    1
    46    43    38   ar
    47    26    21   ar
    48    12     7    1
    49    32    27   ar
@<TRIPOS>MOLECULE
*****
 44 49 0 0 0
SMALL
GASTEIGER

@<TRIPOS>ATOM
      1 N          62.3879   89.1293   11.4818 N.am    1  UNL1       -0.2222
      2 C          62.0242   90.0955   10.3934 C.2     1  UNL1        0.3219
      3 O          62.1262   91.5900   10.4708 O.2     1  UNL1       -0.2512
      4 N          61.5408   89.3046    9.2141 N.am    1  UNL1       -0.1907
      5 C          61.6056   87.8498    9.5735 C.2     1  UNL1        0.2529
      6 O          61.2154   86.7043    8.6872 O.2     1  UNL1       -0.2724
      7 C          62.1292   87.7414   10.9751 C.3     1  UNL1        0.1391
      8 C          62.6605   87.7899   12.3769 C.3     1  UNL1        0.0449
      9 C          62.8857   86.5172   13.1381 C.3     1  UNL1        0.0746
     10 N          62.5797   85.1959   12.4973 N.3     1  UNL1       -0.2676
     11 C          62.0484   85.1474   11.0954 C.3     1  UNL1        0.0746
     12 C          61.8231   86.4201   10.3343 C.3     1  UNL1        0.0449
     13 C          64.8739   90.2808   14.3529 C.ar    1  UNL1        0.2293
     14 C          64.3445   89.9220   12.9961 C.ar    1  UNL1        0.0924
     15 C          62.9173   89.4882   12.8386 C.ar    1  UNL1        0.1453
     16 N          62.0195   89.4132   14.0379 N.ar    1  UNL1       -0.2084
     17 C          62.5488   89.7720   15.3947 C.ar    1  UNL1        0.2027
     18 N          63.9761   90.2058   15.5522 N.ar    1  UNL1       -0.1892
     19 C          66.7575   92.0186   13.9263 C.3     1  UNL1        0.2542
     20 O          66.3011   90.7146   14.5105 O.3     1  UNL1       -0.4560
     21 C          61.0744   89.8694    7.9051 C.ar    1  UNL1        0.0622
     22 C          61.9671   90.7871    7.1236 C.ar    1  UNL1        0.0154
     23 C          61.5006   91.3519    5.8146 C.ar    1  UNL1        0.0013
     24 C          60.1415   90.9991    5.2872 C.ar    1  UNL1        0.0009
     25 C          59.2487   90.0813    6.0687 C.ar    1  UNL1        0.0013
     26 C          59.7152   89.5165    7.3777 C.ar    1  UNL1        0.0154
     27 C          59.6751   91.5639    3.9782 C.ar    1  UNL1        0.0106
     28 C          60.6703   91.8864    2.9033 C.ar    1  UNL1        0.0009
     29 C          60.2039   92.4512    1.5943 C.ar    1  UNL1        0.0012
     30 C          58.7422   92.6935    1.3603 C.ar    1  UNL1        0.0148
     31 C          57.7469   92.3710    2.4352 C.ar    1  UNL1        0.0125
     32 C          58.2133   91.8062    3.7441 C.ar    1  UNL1        0.0577
     33 CL         57.2181   91.4837    4.8191 Cl      1  UNL1       -0.0822
     34 C          58.2757   93.2583    0.0513 C.2     1  UNL1        0.0729
     35 O          57.0204   92.7393   -0.5848 O.co2   1  UNL1       -0.5446
     36 O          59.0647   94.3423   -0.6216 O.co2   1  UNL1       -0.5446
     37 C          62.8050   83.9231   13.2585 C.3     1  UNL1        0.1183
     38 C          62.8858   82.6161   12.5270 C.ar    1  UNL1        0.0712
     39 N          63.5521   82.5477   11.1849 N.ar    1  UNL1       -0.2471
     40 C          63.6329   81.2405   10.4534 C.ar    1  UNL1        0.0985
     41 C          63.0475   80.0019   11.0641 C.ar    1  UNL1        0.0203
     42 C          62.3812   80.0703   12.4063 C.ar    1  UNL1       -0.0015
     43 C          62.3003   81.3774   13.1377 C.ar    1  UNL1       -0.0069
     44 C          61.6341   81.4458   14.4799 C.3     1  UNL1        0.0323
@<TRIPOS>UNITY_ATOM_ATTR
35 1
charge -1
@<TRIPOS>BOND
     1    19    20    1
     2    20    13    1
     3    13    14   ar
     4    14    15   ar
     5    15     1    1
     6     1     2   am
     7     2     3    2
     8     2     4   am
     9     4    21    1
    10    21    22   ar
    11    22    23   ar
    12    23    24   ar
    13    24    27    1
    14    27    28   ar
    15    28    29   ar
    16    29    30   ar
    17    30    34    1
    18    34    35   ar
    19    34    36   ar
    20    30    31   ar
    21    31    32   ar
    22    32    33    1
    23    24    25   ar
    24    25    26   ar
    25     4     5   am
    26     5     6    2
    27     5     7    1
    28     7     8    1
    29     8     9    1
    30     9    10    1
    31    10    37    1
    32    37    38    1
    33    38    39   ar
    34    39    40   ar
    35    40    41   ar
    36    41    42   ar
    37    42    43   ar
    38    43    44    1
    39    10    11    1
    40    11    12    1
    41    15    16   ar
    42    16    17   ar
    43    17    18   ar
    44    18    13   ar
    45     7     1    1
    46    43    38   ar
    47    26    21   ar
    48    12     7    1
    49    32    27   ar
