@<TRIPOS>MOLECULE
*****
 33 36 0 0 0
SMALL
GASTEIGER

@<TRIPOS>ATOM
      1 C          64.7860   91.2123   14.3775 C.ar    1  UNL1        0.1691
      2 N          66.2014   91.5894   14.7007 N.ar    1  UNL1       -0.1409
      3 N          67.0825   92.1761   13.6380 N.ar    1  UNL1       -0.1329
      4 C          66.5483   92.3857   12.2522 C.ar    1  UNL1        0.1515
      5 C          65.1328   92.0086   11.9290 C.ar    1  UNL1        0.0522
      6 C          64.2517   91.4219   12.9917 C.ar    1  UNL1        0.0764
      7 N          63.5718   89.1632   15.4155 N.am    1  UNL1       -0.3240
      8 C          63.9048   90.6256   15.4402 C.2     1  UNL1        0.2635
      9 O          63.3567   91.5012   16.5278 O.2     1  UNL1       -0.2686
     10 H          62.9935   88.7782   16.1130 H       1  UNL1        0.1453
     11 H          63.9316   88.5885   14.7017 H       1  UNL1        0.1453
     12 N          67.4294   92.9724   11.1895 N.pl3   1  UNL1       -0.3170
     13 H          68.2869   92.5424   10.9682 H       1  UNL1        0.1482
     14 C          67.0041   94.2144   10.4638 C.3     1  UNL1        0.0845
     15 C          66.2266   95.2752   11.1850 C.3     1  UNL1        0.0209
     16 C          65.8012   96.5172   10.4594 C.3     1  UNL1        0.0018
     17 C          66.1534   96.6984    9.0126 C.3     1  UNL1        0.0015
     18 C          66.9309   95.6375    8.2915 C.3     1  UNL1        0.0172
     19 C          67.3562   94.3955    9.0170 C.3     1  UNL1        0.0689
     20 N          68.1338   93.3347    8.2958 N.3     1  UNL1       -0.3209
     21 H          68.2829   93.6210    7.3283 H       1  UNL1        0.1189
     22 H          67.6117   92.4586    8.3145 H       1  UNL1        0.1189
     23 N          62.8363   91.0448   12.6686 N.pl3   1  UNL1       -0.2965
     24 H          62.0919   91.5980   12.9988 H       1  UNL1        0.1537
     25 C          62.5551   89.8248   11.8422 C.ar    1  UNL1        0.1318
     26 C          62.0094   89.9697   10.4526 C.ar    1  UNL1        0.0341
     27 C          61.7282   88.7498    9.6263 C.ar    1  UNL1       -0.0002
     28 C          61.9928   87.3850   10.1897 C.ar    1  UNL1       -0.0085
     29 C          62.5386   87.2402   11.5793 C.ar    1  UNL1        0.0564
     30 N          62.8198   88.4600   12.4056 N.ar    1  UNL1       -0.2352
     31 C          62.6982   85.7762   11.8644 C.3     1  UNL1        0.0459
     32 C          62.2510   85.0163   10.6509 C.3     1  UNL1        0.0110
     33 C          61.8151   86.0106    9.6158 C.3     1  UNL1        0.0279
@<TRIPOS>BOND
     1     7     8   am
     2     8     9    2
     3     8     1    1
     4     1     2   ar
     5     2     3   ar
     6     3     4   ar
     7     4    12    1
     8    14    12    1
     9    14    15    1
    10    15    16    1
    11    16    17    1
    12    17    18    1
    13    18    19    1
    14    19    20    1
    15     4     5   ar
    16     5     6   ar
    17     6    23    1
    18    23    25    1
    19    25    26   ar
    20    26    27   ar
    21    27    28   ar
    22    28    29   ar
    23    29    30   ar
    24    29    31    1
    25    31    32    1
    26    32    33    1
    27     6     1   ar
    28    30    25   ar
    29    19    14    1
    30    33    28    1
    31     7    10    1
    32     7    11    1
    33    12    13    1
    34    20    21    1
    35    20    22    1
    36    23    24    1
@<TRIPOS>MOLECULE
*****
 33 36 0 0 0
SMALL
GASTEIGER

@<TRIPOS>ATOM
      1 C          63.0395   87.6947   16.4608 C.ar    1  UNL1        0.1691
      2 N          62.4413   89.0622   16.6094 N.ar    1  UNL1       -0.1409
      3 N          62.9808   90.2082   15.8059 N.ar    1  UNL1       -0.1329
      4 C          64.1186   89.9867   14.8539 C.ar    1  UNL1        0.1515
      5 C          64.7168   88.6192   14.7053 C.ar    1  UNL1        0.0522
      6 C          64.1773   87.4732   15.5088 C.ar    1  UNL1        0.0764
      7 N          62.6689   86.5323   18.7546 N.am    1  UNL1       -0.3240
      8 C          62.5000   86.5487   17.2643 C.2     1  UNL1        0.2635
      9 O          61.7914   85.4190   16.5774 O.2     1  UNL1       -0.2686
     10 H          62.3148   85.7801   19.2819 H       1  UNL1        0.1453
     11 H          63.1340   87.2737   19.2055 H       1  UNL1        0.1453
     12 N          64.6581   91.1327   14.0505 N.pl3   1  UNL1       -0.3170
     13 H          64.1502   91.4761   13.2801 H       1  UNL1        0.1482
     14 C          65.9714   91.7557   14.4206 C.3     1  UNL1        0.0845
     15 C          67.1561   91.6028   13.5134 C.3     1  UNL1        0.0209
     16 C          68.4695   92.2257   13.8835 C.3     1  UNL1        0.0018
     17 C          68.5982   93.0015   15.1608 C.3     1  UNL1        0.0015
     18 C          67.4135   93.1544   16.0680 C.3     1  UNL1        0.0172
     19 C          66.1001   92.5315   15.6980 C.3     1  UNL1        0.0689
     20 N          64.9154   92.6843   16.6052 N.3     1  UNL1       -0.3209
     21 H          65.1806   93.2367   17.4206 H       1  UNL1        0.1189
     22 H          64.5973   91.7634   16.9072 H       1  UNL1        0.1189
     23 N          64.7756   86.1057   15.3602 N.pl3   1  UNL1       -0.2965
     24 H          65.5592   85.8501   15.8985 H       1  UNL1        0.1537
     25 C          64.1797   85.1276   14.3914 C.ar    1  UNL1        0.1318
     26 C          63.5147   85.6211   13.1409 C.ar    1  UNL1        0.0341
     27 C          62.9189   84.6431   12.1721 C.ar    1  UNL1       -0.0002
     28 C          62.9882   83.1715   12.4541 C.ar    1  UNL1       -0.0085
     29 C          63.6532   82.6779   13.7047 C.ar    1  UNL1        0.0564
     30 N          64.2490   83.6559   14.6734 N.ar    1  UNL1       -0.2352
     31 C          63.5696   81.1802   13.7141 C.3     1  UNL1        0.0459
     32 C          62.8529   80.7482   12.4693 C.3     1  UNL1        0.0110
     33 C          62.4935   81.9789   11.6905 C.3     1  UNL1        0.0279
@<TRIPOS>BOND
     1     7     8   am
     2     8     9    2
     3     8     1    1
     4     1     2   ar
     5     2     3   ar
     6     3     4   ar
     7     4    12    1
     8    14    12    1
     9    14    15    1
    10    15    16    1
    11    16    17    1
    12    17    18    1
    13    18    19    1
    14    19    20    1
    15     4     5   ar
    16     5     6   ar
    17     6    23    1
    18    23    25    1
    19    25    26   ar
    20    26    27   ar
    21    27    28   ar
    22    28    29   ar
    23    29    30   ar
    24    29    31    1
    25    31    32    1
    26    32    33    1
    27     6     1   ar
    28    30    25   ar
    29    19    14    1
    30    33    28    1
    31     7    10    1
    32     7    11    1
    33    12    13    1
    34    20    21    1
    35    20    22    1
    36    23    24    1
@<TRIPOS>MOLECULE
*****
 33 36 0 0 0
SMALL
GASTEIGER

@<TRIPOS>ATOM
      1 C          60.3604   88.5199    9.2399 C.ar    1  UNL1        0.1691
      2 N          59.8488   89.7702    9.8918 N.ar    1  UNL1       -0.1409
      3 N          60.6176   90.3983   11.0163 N.ar    1  UNL1       -0.1329
      4 C          61.8980   89.7759   11.4890 C.ar    1  UNL1        0.1515
      5 C          62.4095   88.5256   10.8371 C.ar    1  UNL1        0.0522
      6 C          61.6408   87.8976    9.7126 C.ar    1  UNL1        0.0764
      7 N          59.0185   88.7504    7.0272 N.am    1  UNL1       -0.3240
      8 C          59.5917   87.8918    8.1154 C.2     1  UNL1        0.2635
      9 O          59.3960   86.4051    8.0791 O.2     1  UNL1       -0.2686
     10 H          58.5140   88.3382    6.2892 H       1  UNL1        0.1453
     11 H          59.1469   89.7262    7.0510 H       1  UNL1        0.1453
     12 N          62.6667   90.4040   12.6135 N.pl3   1  UNL1       -0.3170
     13 H          62.3819   90.2605   13.5449 H       1  UNL1        0.1482
     14 C          63.8694   91.2506   12.3189 C.3     1  UNL1        0.0845
     15 C          64.1556   91.6831   10.9114 C.3     1  UNL1        0.0209
     16 C          65.3582   92.5297   10.6168 C.3     1  UNL1        0.0018
     17 C          66.2747   92.9439   11.7297 C.3     1  UNL1        0.0015
     18 C          65.9885   92.5114   13.1372 C.3     1  UNL1        0.0172
     19 C          64.7859   91.6648   13.4318 C.3     1  UNL1        0.0689
     20 N          64.4997   91.2323   14.8393 N.3     1  UNL1       -0.3209
     21 H          65.2192   91.6010   15.4612 H       1  UNL1        0.1189
     22 H          64.4975   90.2135   14.8882 H       1  UNL1        0.1189
     23 N          62.1524   86.6472    9.0607 N.pl3   1  UNL1       -0.2965
     24 H          62.1719   86.5765    8.0790 H       1  UNL1        0.1537
     25 C          62.6342   85.5045    9.9048 C.ar    1  UNL1        0.1318
     26 C          63.4588   84.4132    9.2894 C.ar    1  UNL1        0.0341
     27 C          63.9406   83.2706   10.1334 C.ar    1  UNL1       -0.0002
     28 C          63.5977   83.2194   11.5927 C.ar    1  UNL1       -0.0085
     29 C          62.7730   84.3108   12.2082 C.ar    1  UNL1        0.0564
     30 N          62.2912   85.4534   11.3642 N.ar    1  UNL1       -0.2352
     31 C          62.5944   83.9925   13.6631 C.3     1  UNL1        0.0459
     32 C          63.3088   82.7045   13.9469 C.3     1  UNL1        0.0110
     33 C          63.9288   82.2266   12.6673 C.3     1  UNL1        0.0279
@<TRIPOS>BOND
     1     7     8   am
     2     8     9    2
     3     8     1    1
     4     1     2   ar
     5     2     3   ar
     6     3     4   ar
     7     4    12    1
     8    14    12    1
     9    14    15    1
    10    15    16    1
    11    16    17    1
    12    17    18    1
    13    18    19    1
    14    19    20    1
    15     4     5   ar
    16     5     6   ar
    17     6    23    1
    18    23    25    1
    19    25    26   ar
    20    26    27   ar
    21    27    28   ar
    22    28    29   ar
    23    29    30   ar
    24    29    31    1
    25    31    32    1
    26    32    33    1
    27     6     1   ar
    28    30    25   ar
    29    19    14    1
    30    33    28    1
    31     7    10    1
    32     7    11    1
    33    12    13    1
    34    20    21    1
    35    20    22    1
    36    23    24    1
@<TRIPOS>MOLECULE
*****
 33 36 0 0 0
SMALL
GASTEIGER

@<TRIPOS>ATOM
      1 C          62.9737   87.6198   16.6088 C.ar    1  UNL1        0.1691
      2 N          62.4544   89.0210   16.4793 N.ar    1  UNL1       -0.1409
      3 N          62.9043   89.8852   15.3387 N.ar    1  UNL1       -0.1329
      4 C          63.8735   89.3481   14.3278 C.ar    1  UNL1        0.1515
      5 C          64.3929   87.9468   14.4573 C.ar    1  UNL1        0.0522
      6 C          63.9430   87.0827   15.5979 C.ar    1  UNL1        0.0764
      7 N          62.7147   87.2199   19.1628 N.am    1  UNL1       -0.3240
      8 C          62.5238   86.7557   17.7494 C.2     1  UNL1        0.2635
      9 O          61.8830   85.4272   17.4764 O.2     1  UNL1       -0.2686
     10 H          62.4194   86.6527   19.9114 H       1  UNL1        0.1453
     11 H          63.1353   88.0918   19.3420 H       1  UNL1        0.1453
     12 N          64.3234   90.2122   13.1872 N.pl3   1  UNL1       -0.3170
     13 H          64.0881   89.9690   12.2627 H       1  UNL1        0.1482
     14 C          65.1319   91.4469   13.4552 C.3     1  UNL1        0.0845
     15 C          65.6929   91.6934   14.8243 C.3     1  UNL1        0.0209
     16 C          66.5015   92.9281   15.0923 C.3     1  UNL1        0.0018
     17 C          66.7490   93.9162   13.9913 C.3     1  UNL1        0.0015
     18 C          66.1879   93.6697   12.6222 C.3     1  UNL1        0.0172
     19 C          65.3794   92.4350   12.3541 C.3     1  UNL1        0.0689
     20 N          64.8184   92.1884   10.9850 N.3     1  UNL1       -0.3209
     21 H          65.0821   92.9553   10.3663 H       1  UNL1        0.1189
     22 H          63.8016   92.1300   11.0397 H       1  UNL1        0.1189
     23 N          64.4623   85.6814   15.7274 N.pl3   1  UNL1       -0.2965
     24 H          65.1132   85.4609   16.4323 H       1  UNL1        0.1537
     25 C          63.9897   84.6161   14.7830 C.ar    1  UNL1        0.1318
     26 C          62.9436   83.6349   15.2219 C.ar    1  UNL1        0.0341
     27 C          62.4711   82.5696   14.2776 C.ar    1  UNL1       -0.0002
     28 C          63.0448   82.4855   12.8942 C.ar    1  UNL1       -0.0085
     29 C          64.0910   83.4668   12.4551 C.ar    1  UNL1        0.0564
     30 N          64.5635   84.5320   13.3995 N.ar    1  UNL1       -0.2352
     31 C          64.4698   83.1389   11.0413 C.3     1  UNL1        0.0459
     32 C          63.6578   81.9551   10.6065 C.3     1  UNL1        0.0110
     33 C          62.7770   81.5512   11.7516 C.3     1  UNL1        0.0279
@<TRIPOS>BOND
     1     7     8   am
     2     8     9    2
     3     8     1    1
     4     1     2   ar
     5     2     3   ar
     6     3     4   ar
     7     4    12    1
     8    14    12    1
     9    14    15    1
    10    15    16    1
    11    16    17    1
    12    17    18    1
    13    18    19    1
    14    19    20    1
    15     4     5   ar
    16     5     6   ar
    17     6    23    1
    18    23    25    1
    19    25    26   ar
    20    26    27   ar
    21    27    28   ar
    22    28    29   ar
    23    29    30   ar
    24    29    31    1
    25    31    32    1
    26    32    33    1
    27     6     1   ar
    28    30    25   ar
    29    19    14    1
    30    33    28    1
    31     7    10    1
    32     7    11    1
    33    12    13    1
    34    20    21    1
    35    20    22    1
    36    23    24    1
@<TRIPOS>MOLECULE
*****
 33 36 0 0 0
SMALL
GASTEIGER

@<TRIPOS>ATOM
      1 C          61.2248   88.8948   11.1017 C.ar    1  UNL1        0.1691
      2 N          60.9509   87.4200   11.0960 N.ar    1  UNL1       -0.1409
      3 N          61.8295   86.4909   11.8801 N.ar    1  UNL1       -0.1329
      4 C          62.9820   87.0366   12.6700 C.ar    1  UNL1        0.1515
      5 C          63.2559   88.5114   12.6757 C.ar    1  UNL1        0.0522
      6 C          62.3773   89.4405   11.8916 C.ar    1  UNL1        0.0764
      7 N          60.2761   89.7077    8.8237 N.am    1  UNL1       -0.3240
      8 C          60.3462   89.8238   10.3176 C.2     1  UNL1        0.2635
      9 O          59.5377   90.8691   11.0273 O.2     1  UNL1       -0.2686
     10 H          59.6994   90.3175    8.3091 H       1  UNL1        0.1453
     11 H          60.8068   89.0217    8.3579 H       1  UNL1        0.1453
     12 N          63.8606   86.1075   13.4541 N.pl3   1  UNL1       -0.3170
     13 H          64.6229   86.4646   13.9645 H       1  UNL1        0.1482
     14 C          63.5776   84.6345   13.4606 C.3     1  UNL1        0.0845
     15 C          64.2115   83.7446   12.4329 C.3     1  UNL1        0.0209
     16 C          63.9286   82.2715   12.4393 C.3     1  UNL1        0.0018
     17 C          63.0118   81.6884   13.4735 C.3     1  UNL1        0.0015
     18 C          62.3780   82.5783   14.5013 C.3     1  UNL1        0.0172
     19 C          62.6609   84.0514   14.4948 C.3     1  UNL1        0.0689
     20 N          62.0270   84.9413   15.5226 N.3     1  UNL1       -0.3209
     21 H          61.4393   84.3819   16.1407 H       1  UNL1        0.1189
     22 H          61.4559   85.6461   15.0563 H       1  UNL1        0.1189
     23 N          62.6512   90.9152   11.8973 N.pl3   1  UNL1       -0.2965
     24 H          61.9980   91.5388   11.5052 H       1  UNL1        0.1537
     25 C          63.9204   91.4400   12.5006 C.ar    1  UNL1        0.1318
     26 C          65.0502   91.8714   11.6134 C.ar    1  UNL1        0.0341
     27 C          66.3193   92.3961   12.2166 C.ar    1  UNL1       -0.0002
     28 C          66.4586   92.4895   13.7072 C.ar    1  UNL1       -0.0085
     29 C          65.3288   92.0581   14.5946 C.ar    1  UNL1        0.0564
     30 N          64.0596   91.5333   13.9913 N.ar    1  UNL1       -0.2352
     31 C          65.7529   92.2642   16.0185 C.3     1  UNL1        0.0459
     32 C          67.1449   92.8229   16.0112 C.3     1  UNL1        0.0110
     33 C          67.5811   92.9622   14.5828 C.3     1  UNL1        0.0279
@<TRIPOS>BOND
     1     7     8   am
     2     8     9    2
     3     8     1    1
     4     1     2   ar
     5     2     3   ar
     6     3     4   ar
     7     4    12    1
     8    14    12    1
     9    14    15    1
    10    15    16    1
    11    16    17    1
    12    17    18    1
    13    18    19    1
    14    19    20    1
    15     4     5   ar
    16     5     6   ar
    17     6    23    1
    18    23    25    1
    19    25    26   ar
    20    26    27   ar
    21    27    28   ar
    22    28    29   ar
    23    29    30   ar
    24    29    31    1
    25    31    32    1
    26    32    33    1
    27     6     1   ar
    28    30    25   ar
    29    19    14    1
    30    33    28    1
    31     7    10    1
    32     7    11    1
    33    12    13    1
    34    20    21    1
    35    20    22    1
    36    23    24    1
@<TRIPOS>MOLECULE
*****
 33 36 0 0 0
SMALL
GASTEIGER

@<TRIPOS>ATOM
      1 C          63.2955   88.0372   15.8338 C.ar    1  UNL1        0.1691
      2 N          63.1792   86.8559   16.7510 N.ar    1  UNL1       -0.1409
      3 N          63.7550   85.5317   16.3452 N.ar    1  UNL1       -0.1329
      4 C          64.4472   85.3887   15.0221 C.ar    1  UNL1        0.1515
      5 C          64.5635   86.5699   14.1050 C.ar    1  UNL1        0.0522
      6 C          63.9876   87.8941   14.5108 C.ar    1  UNL1        0.0764
      7 N          63.6263   90.4646   16.6987 N.am    1  UNL1       -0.3240
      8 C          62.7196   89.3614   16.2397 C.2     1  UNL1        0.2635
      9 O          61.2369   89.5825   16.1866 O.2     1  UNL1       -0.2686
     10 H          63.2483   91.3338   16.9650 H       1  UNL1        0.1453
     11 H          64.5995   90.3196   16.7336 H       1  UNL1        0.1453
     12 N          65.0231   84.0644   14.6163 N.pl3   1  UNL1       -0.3170
     13 H          65.8551   83.7414   15.0317 H       1  UNL1        0.1482
     14 C          64.3313   83.2323   13.5775 C.3     1  UNL1        0.0845
     15 C          64.8432   83.2148   12.1677 C.3     1  UNL1        0.0209
     16 C          64.1515   82.3828   11.1289 C.3     1  UNL1        0.0018
     17 C          62.9478   81.5682   11.4999 C.3     1  UNL1        0.0015
     18 C          62.4359   81.5857   12.9097 C.3     1  UNL1        0.0172
     19 C          63.1276   82.4178   13.9485 C.3     1  UNL1        0.0689
     20 N          62.6157   82.4353   15.3584 N.3     1  UNL1       -0.3209
     21 H          61.7980   81.8298   15.4307 H       1  UNL1        0.1189
     22 H          62.3568   83.3881   15.6143 H       1  UNL1        0.1189
     23 N          64.1039   89.0753   13.5936 N.pl3   1  UNL1       -0.2965
     24 H          64.7651   89.7804   13.7805 H       1  UNL1        0.1537
     25 C          63.2128   89.1823   12.3917 C.ar    1  UNL1        0.1318
     26 C          63.1085   90.4809   11.6485 C.ar    1  UNL1        0.0341
     27 C          62.2174   90.5879   10.4467 C.ar    1  UNL1       -0.0002
     28 C          61.4305   89.3960    9.9880 C.ar    1  UNL1       -0.0085
     29 C          61.5348   88.0973   10.7312 C.ar    1  UNL1        0.0564
     30 N          62.4259   87.9903   11.9331 N.ar    1  UNL1       -0.2352
     31 C          60.6457   87.1002   10.0491 C.3     1  UNL1        0.0459
     32 C          59.9919   87.7827    8.8844 C.3     1  UNL1        0.0110
     33 C          60.4769   89.2016    8.8466 C.3     1  UNL1        0.0279
@<TRIPOS>BOND
     1     7     8   am
     2     8     9    2
     3     8     1    1
     4     1     2   ar
     5     2     3   ar
     6     3     4   ar
     7     4    12    1
     8    14    12    1
     9    14    15    1
    10    15    16    1
    11    16    17    1
    12    17    18    1
    13    18    19    1
    14    19    20    1
    15     4     5   ar
    16     5     6   ar
    17     6    23    1
    18    23    25    1
    19    25    26   ar
    20    26    27   ar
    21    27    28   ar
    22    28    29   ar
    23    29    30   ar
    24    29    31    1
    25    31    32    1
    26    32    33    1
    27     6     1   ar
    28    30    25   ar
    29    19    14    1
    30    33    28    1
    31     7    10    1
    32     7    11    1
    33    12    13    1
    34    20    21    1
    35    20    22    1
    36    23    24    1
@<TRIPOS>MOLECULE
*****
 33 36 0 0 0
SMALL
GASTEIGER

@<TRIPOS>ATOM
      1 C          61.0176   87.2417    9.7073 C.ar    1  UNL1        0.1691
      2 N          61.2369   85.7944    9.3796 N.ar    1  UNL1       -0.1409
      3 N          62.0690   84.9377   10.2871 N.ar    1  UNL1       -0.1329
      4 C          62.6818   85.5282   11.5223 C.ar    1  UNL1        0.1515
      5 C          62.4625   86.9755   11.8500 C.ar    1  UNL1        0.0522
      6 C          61.6304   87.8322   10.9425 C.ar    1  UNL1        0.0764
      7 N          59.0524   87.4919    8.0264 N.am    1  UNL1       -0.3240
      8 C          60.1855   88.0984    8.7998 C.2     1  UNL1        0.2635
      9 O          60.4865   89.5618    8.6656 O.2     1  UNL1       -0.2686
     10 H          58.5063   88.0542    7.4307 H       1  UNL1        0.1453
     11 H          58.8548   86.5314    8.1144 H       1  UNL1        0.1453
     12 N          63.5139   84.6715   12.4298 N.pl3   1  UNL1       -0.3170
     13 H          64.3466   85.0275   12.8161 H       1  UNL1        0.1482
     14 C          63.0775   83.2723   12.7488 C.3     1  UNL1        0.0845
     15 C          62.2624   83.0031   13.9789 C.3     1  UNL1        0.0209
     16 C          61.8259   81.6039   14.2980 C.3     1  UNL1        0.0018
     17 C          62.2046   80.4740   13.3870 C.3     1  UNL1        0.0015
     18 C          63.0197   80.7433   12.1569 C.3     1  UNL1        0.0172
     19 C          63.4562   82.1424   11.8378 C.3     1  UNL1        0.0689
     20 N          64.2713   82.4117   10.6077 N.3     1  UNL1       -0.3209
     21 H          64.4347   81.5366   10.1098 H       1  UNL1        0.1189
     22 H          65.1656   82.8225   10.8757 H       1  UNL1        0.1189
     23 N          61.4111   89.2795   11.2702 N.pl3   1  UNL1       -0.2965
     24 H          60.4979   89.6469   11.2895 H       1  UNL1        0.1537
     25 C          62.5832   90.1669   11.5683 C.ar    1  UNL1        0.1318
     26 C          63.1536   91.0427   10.4925 C.ar    1  UNL1        0.0341
     27 C          64.3256   91.9301   10.7907 C.ar    1  UNL1       -0.0002
     28 C          64.9271   91.9417   12.1647 C.ar    1  UNL1       -0.0085
     29 C          64.3567   91.0659   13.2406 C.ar    1  UNL1        0.0564
     30 N          63.1847   90.1785   12.9425 N.ar    1  UNL1       -0.2352
     31 C          65.1542   91.2888   14.4913 C.3     1  UNL1        0.0459
     32 C          66.2176   92.3025   14.1883 C.3     1  UNL1        0.0110
     33 C          66.0772   92.7060   12.7505 C.3     1  UNL1        0.0279
@<TRIPOS>BOND
     1     7     8   am
     2     8     9    2
     3     8     1    1
     4     1     2   ar
     5     2     3   ar
     6     3     4   ar
     7     4    12    1
     8    14    12    1
     9    14    15    1
    10    15    16    1
    11    16    17    1
    12    17    18    1
    13    18    19    1
    14    19    20    1
    15     4     5   ar
    16     5     6   ar
    17     6    23    1
    18    23    25    1
    19    25    26   ar
    20    26    27   ar
    21    27    28   ar
    22    28    29   ar
    23    29    30   ar
    24    29    31    1
    25    31    32    1
    26    32    33    1
    27     6     1   ar
    28    30    25   ar
    29    19    14    1
    30    33    28    1
    31     7    10    1
    32     7    11    1
    33    12    13    1
    34    20    21    1
    35    20    22    1
    36    23    24    1
@<TRIPOS>MOLECULE
*****
 33 36 0 0 0
SMALL
GASTEIGER

@<TRIPOS>ATOM
      1 C          61.4752   87.4121   10.0790 C.ar    1  UNL1        0.1691
      2 N          61.7331   86.0329    9.5488 N.ar    1  UNL1       -0.1409
      3 N          62.5007   85.0433   10.3744 N.ar    1  UNL1       -0.1329
      4 C          63.0104   85.4331   11.7302 C.ar    1  UNL1        0.1515
      5 C          62.7525   86.8123   12.2605 C.ar    1  UNL1        0.0522
      6 C          61.9849   87.8019   11.4349 C.ar    1  UNL1        0.0764
      7 N          61.1377   89.8381    9.2126 N.am    1  UNL1       -0.3240
      8 C          60.7076   88.4017    9.2534 C.2     1  UNL1        0.2635
      9 O          59.5099   87.9548    8.4687 O.2     1  UNL1       -0.2686
     10 H          60.6339   90.4876    8.6707 H       1  UNL1        0.1453
     11 H          61.9237   90.1315    9.7276 H       1  UNL1        0.1453
     12 N          63.7779   84.4435   12.5558 N.pl3   1  UNL1       -0.3170
     13 H          64.6528   84.6910   12.9333 H       1  UNL1        0.1482
     14 C          63.2126   83.0769   12.8062 C.3     1  UNL1        0.0845
     15 C          62.4079   82.8136   14.0444 C.3     1  UNL1        0.0209
     16 C          61.8425   81.4470   14.2949 C.3     1  UNL1        0.0018
     17 C          62.0817   80.3438   13.3072 C.3     1  UNL1        0.0015
     18 C          62.8864   80.6071   12.0689 C.3     1  UNL1        0.0172
     19 C          63.4518   81.9737   11.8184 C.3     1  UNL1        0.0689
     20 N          64.2564   82.2371   10.5802 N.3     1  UNL1       -0.3209
     21 H          64.3180   81.3826   10.0266 H       1  UNL1        0.1189
     22 H          65.1942   82.5408   10.8423 H       1  UNL1        0.1189
     23 N          61.7270   89.1811   11.9651 N.pl3   1  UNL1       -0.2965
     24 H          60.8029   89.4876   12.1108 H       1  UNL1        0.1537
     25 C          62.8772   90.0934   12.2734 C.ar    1  UNL1        0.1318
     26 C          63.4771   90.1057   13.6480 C.ar    1  UNL1        0.0341
     27 C          64.6273   91.0179   13.9563 C.ar    1  UNL1       -0.0002
     28 C          65.1775   91.9178   12.8898 C.ar    1  UNL1       -0.0085
     29 C          64.5776   91.9055   11.5151 C.ar    1  UNL1        0.0564
     30 N          63.4274   90.9933   11.2068 N.ar    1  UNL1       -0.2352
     31 C          65.3258   92.8967   10.6739 C.3     1  UNL1        0.0459
     32 C          66.3882   93.5216   11.5287 C.3     1  UNL1        0.0110
     33 C          66.2966   92.9166   12.8983 C.3     1  UNL1        0.0279
@<TRIPOS>BOND
     1     7     8   am
     2     8     9    2
     3     8     1    1
     4     1     2   ar
     5     2     3   ar
     6     3     4   ar
     7     4    12    1
     8    14    12    1
     9    14    15    1
    10    15    16    1
    11    16    17    1
    12    17    18    1
    13    18    19    1
    14    19    20    1
    15     4     5   ar
    16     5     6   ar
    17     6    23    1
    18    23    25    1
    19    25    26   ar
    20    26    27   ar
    21    27    28   ar
    22    28    29   ar
    23    29    30   ar
    24    29    31    1
    25    31    32    1
    26    32    33    1
    27     6     1   ar
    28    30    25   ar
    29    19    14    1
    30    33    28    1
    31     7    10    1
    32     7    11    1
    33    12    13    1
    34    20    21    1
    35    20    22    1
    36    23    24    1
@<TRIPOS>MOLECULE
*****
 33 36 0 0 0
SMALL
GASTEIGER

@<TRIPOS>ATOM
      1 C          61.0280   86.5818    9.4705 C.ar    1  UNL1        0.1691
      2 N          60.6596   86.0646    8.1115 N.ar    1  UNL1       -0.1409
      3 N          59.7396   86.8574    7.2313 N.ar    1  UNL1       -0.1329
      4 C          59.1879   88.1676    7.7100 C.ar    1  UNL1        0.1515
      5 C          59.5563   88.6849    9.0689 C.ar    1  UNL1        0.0522
      6 C          60.4764   87.8920    9.9492 C.ar    1  UNL1        0.0764
      7 N          63.0302   84.9484    9.7406 N.am    1  UNL1       -0.3240
      8 C          61.9481   85.7890   10.3507 C.2     1  UNL1        0.2635
      9 O          61.7860   85.8367   11.8412 O.2     1  UNL1       -0.2686
     10 H          63.6341   84.4280   10.3184 H       1  UNL1        0.1453
     11 H          63.1367   84.9170    8.7624 H       1  UNL1        0.1453
     12 N          58.2679   88.9604    6.8298 N.pl3   1  UNL1       -0.3170
     13 H          57.3011   88.7742    6.8337 H       1  UNL1        0.1482
     14 C          58.8206   90.0370    5.9436 C.3     1  UNL1        0.0845
     15 C          60.3046   90.1999    5.7977 C.3     1  UNL1        0.0209
     16 C          60.8575   91.2764    4.9115 C.3     1  UNL1        0.0018
     17 C          59.9263   92.1901    4.1712 C.3     1  UNL1        0.0015
     18 C          58.4424   92.0273    4.3170 C.3     1  UNL1        0.0172
     19 C          57.8895   90.9507    5.2032 C.3     1  UNL1        0.0689
     20 N          56.4055   90.7879    5.3491 N.3     1  UNL1       -0.3209
     21 H          55.9291   91.4877    4.7801 H       1  UNL1        0.1189
     22 H          56.1446   90.9102    6.3275 H       1  UNL1        0.1189
     23 N          60.8448   88.4093   11.3081 N.pl3   1  UNL1       -0.2965
     24 H          60.3595   88.0920   12.1038 H       1  UNL1        0.1537
     25 C          61.9526   89.4100   11.4547 C.ar    1  UNL1        0.1318
     26 C          62.2828   90.3348   10.3210 C.ar    1  UNL1        0.0341
     27 C          63.3906   91.3355   10.4676 C.ar    1  UNL1       -0.0002
     28 C          64.1681   91.4113   11.7480 C.ar    1  UNL1       -0.0085
     29 C          63.8380   90.4864   12.8819 C.ar    1  UNL1        0.0564
     30 N          62.7302   89.4858   12.7353 N.ar    1  UNL1       -0.2352
     31 C          64.7711   90.7917   14.0159 C.3     1  UNL1        0.0459
     32 C          65.6781   91.9052   13.5829 C.3     1  UNL1        0.0110
     33 C          65.3054   92.2882   12.1813 C.3     1  UNL1        0.0279
@<TRIPOS>BOND
     1     7     8   am
     2     8     9    2
     3     8     1    1
     4     1     2   ar
     5     2     3   ar
     6     3     4   ar
     7     4    12    1
     8    14    12    1
     9    14    15    1
    10    15    16    1
    11    16    17    1
    12    17    18    1
    13    18    19    1
    14    19    20    1
    15     4     5   ar
    16     5     6   ar
    17     6    23    1
    18    23    25    1
    19    25    26   ar
    20    26    27   ar
    21    27    28   ar
    22    28    29   ar
    23    29    30   ar
    24    29    31    1
    25    31    32    1
    26    32    33    1
    27     6     1   ar
    28    30    25   ar
    29    19    14    1
    30    33    28    1
    31     7    10    1
    32     7    11    1
    33    12    13    1
    34    20    21    1
    35    20    22    1
    36    23    24    1
