@<TRIPOS>MOLECULE
*****
 26 28 0 0 0
SMALL
GASTEIGER

@<TRIPOS>ATOM
      1 C          64.1795   89.3022   13.8266 C.ar    1  UNL1        0.3038
      2 N          63.5223   88.5447   12.7112 N.ar    1  UNL1       -0.1024
      3 N          63.4660   87.0980   13.1035 N.ar    1  UNL1       -0.1094
      4 C          64.0885   86.9614   14.4614 C.ar    1  UNL1        0.2508
      5 O          64.5294   88.3237   14.9083 O.2     1  UNL1       -0.4143
      6 O          63.8030   91.6332   14.9104 O.2     1  UNL1       -0.2649
      7 C          64.4409   90.7789   13.8552 C.2     1  UNL1        0.3016
      8 N          65.3403   91.4015   12.8287 N.am    1  UNL1       -0.2930
      9 H          65.7590   90.8408   12.1362 H       1  UNL1        0.1502
     10 C          65.6017   92.8782   12.8574 C.3     1  UNL1        0.1168
     11 C          66.2666   93.5450   11.6897 C.ar    1  UNL1        0.0005
     12 C          66.1779   95.0333   11.5256 C.ar    1  UNL1        0.0181
     13 C          66.8428   95.7000   10.3580 C.ar    1  UNL1        0.0986
     14 N          67.5965   94.8784    9.3546 N.ar    1  UNL1       -0.2423
     15 C          67.6852   93.3901    9.5187 C.ar    1  UNL1        0.0986
     16 C          67.0203   92.7234   10.6863 C.ar    1  UNL1        0.0181
     17 C          64.2428   85.6864   15.2364 C.3     1  UNL1        0.2420
     18 S          63.7505   84.3929   14.6580 S.O2    1  UNL1        0.0178
     19 O          65.1207   84.1146   14.1143 O.2     1  UNL1       -0.1681
     20 O          62.3805   84.6712   15.2016 O.2     1  UNL1       -0.1681
     21 C          63.2584   83.0995   14.0795 C.ar    1  UNL1        0.1062
     22 C          63.9448   82.5018   12.8872 C.ar    1  UNL1        0.0184
     23 C          63.4526   81.2082   12.3087 C.ar    1  UNL1        0.0013
     24 C          62.2740   80.5124   12.9225 C.ar    1  UNL1        0.0001
     25 C          61.5876   81.1101   14.1149 C.ar    1  UNL1        0.0013
     26 C          62.0798   82.4037   14.6934 C.ar    1  UNL1        0.0184
@<TRIPOS>BOND
     1     6     7    2
     2     7     8   am
     3     8    10    1
     4    10    11    1
     5    11    12   ar
     6    12    13   ar
     7    13    14   ar
     8    14    15   ar
     9    15    16   ar
    10     7     1    1
    11     1     2   ar
    12     2     3   ar
    13     3     4   ar
    14     4    17    1
    15    17    18    1
    16    18    19    2
    17    18    20    2
    18    18    21    1
    19    21    22   ar
    20    22    23   ar
    21    23    24   ar
    22    24    25   ar
    23    25    26   ar
    24     4     5   ar
    25    16    11   ar
    26     5     1   ar
    27    26    21   ar
    28     8     9    1
@<TRIPOS>MOLECULE
*****
 26 28 0 0 0
SMALL
GASTEIGER

@<TRIPOS>ATOM
      1 C          64.1858   89.3102   13.8306 C.ar    1  UNL1        0.3038
      2 N          63.5136   88.5510   12.7253 N.ar    1  UNL1       -0.1024
      3 N          63.4608   87.1052   13.1214 N.ar    1  UNL1       -0.1094
      4 C          64.1005   86.9709   14.4716 C.ar    1  UNL1        0.2508
      5 O          64.5485   88.3337   14.9098 O.2     1  UNL1       -0.4143
      6 O          63.8484   91.6396   14.9306 O.2     1  UNL1       -0.2649
      7 C          64.4491   90.7867   13.8527 C.2     1  UNL1        0.3016
      8 N          65.3130   91.4105   12.7969 N.am    1  UNL1       -0.2930
      9 H          65.7073   90.8507   12.0895 H       1  UNL1        0.1502
     10 C          65.5763   92.8870   12.8191 C.3     1  UNL1        0.1168
     11 C          66.2574   93.5449   11.6557 C.ar    1  UNL1        0.0005
     12 C          66.9996   92.7127   10.6525 C.ar    1  UNL1        0.0181
     13 C          67.6807   93.3707    9.4893 C.ar    1  UNL1        0.0986
     14 N          67.6195   94.8608    9.3292 N.ar    1  UNL1       -0.2423
     15 C          66.8772   95.6931   10.3324 C.ar    1  UNL1        0.0986
     16 C          66.1962   95.0351   11.4956 C.ar    1  UNL1        0.0181
     17 C          64.2634   85.6974   15.2472 C.3     1  UNL1        0.2420
     18 S          63.7677   84.4023   14.6754 S.O2    1  UNL1        0.0178
     19 O          62.3862   84.7124   15.1708 O.2     1  UNL1       -0.1681
     20 O          65.1492   84.0923   14.1800 O.2     1  UNL1       -0.1681
     21 C          63.2720   83.1073   14.1036 C.ar    1  UNL1        0.1062
     22 C          62.0584   82.4459   14.6865 C.ar    1  UNL1        0.0184
     23 C          61.5626   81.1507   14.1146 C.ar    1  UNL1        0.0013
     24 C          62.2803   80.5171   12.9600 C.ar    1  UNL1        0.0001
     25 C          63.4939   81.1785   12.3770 C.ar    1  UNL1        0.0013
     26 C          63.9897   82.4737   12.9489 C.ar    1  UNL1        0.0184
@<TRIPOS>BOND
     1     6     7    2
     2     7     8   am
     3     8    10    1
     4    10    11    1
     5    11    12   ar
     6    12    13   ar
     7    13    14   ar
     8    14    15   ar
     9    15    16   ar
    10     7     1    1
    11     1     2   ar
    12     2     3   ar
    13     3     4   ar
    14     4    17    1
    15    17    18    1
    16    18    19    2
    17    18    20    2
    18    18    21    1
    19    21    22   ar
    20    22    23   ar
    21    23    24   ar
    22    24    25   ar
    23    25    26   ar
    24     4     5   ar
    25    16    11   ar
    26     5     1   ar
    27    26    21   ar
    28     8     9    1
@<TRIPOS>MOLECULE
*****
 26 28 0 0 0
SMALL
GASTEIGER

@<TRIPOS>ATOM
      1 C          63.1632   88.0103   16.2018 C.ar    1  UNL1        0.3038
      2 N          62.0837   87.5502   17.1361 N.ar    1  UNL1       -0.1024
      3 N          62.1272   86.0519   17.1928 N.ar    1  UNL1       -0.1094
      4 C          63.2337   85.5860   16.2935 C.ar    1  UNL1        0.2508
      5 O          63.8740   86.7963   15.6811 O.2     1  UNL1       -0.4143
      6 O          63.1758   90.5320   16.8270 O.2     1  UNL1       -0.2649
      7 C          63.4770   89.4343   15.8501 C.2     1  UNL1        0.3016
      8 N          64.0919   89.7606   14.5214 N.am    1  UNL1       -0.2930
      9 H          64.2896   89.0401   13.8802 H       1  UNL1        0.1502
     10 C          64.4056   91.1846   14.1696 C.3     1  UNL1        0.1168
     11 C          65.7728   91.7399   14.4388 C.ar    1  UNL1        0.0005
     12 C          66.0668   92.4062   15.7501 C.ar    1  UNL1        0.0181
     13 C          67.4340   92.9615   16.0193 C.ar    1  UNL1        0.0986
     14 N          68.5071   92.8505   14.9772 N.ar    1  UNL1       -0.2423
     15 C          68.2131   92.1843   13.6659 C.ar    1  UNL1        0.0986
     16 C          66.8460   91.6290   13.3967 C.ar    1  UNL1        0.0181
     17 C          63.6302   84.1601   16.0496 C.3     1  UNL1        0.2420
     18 S          63.6183   83.6063   14.6556 S.O2    1  UNL1        0.0178
     19 O          65.0175   84.1047   14.4458 O.2     1  UNL1       -0.1681
     20 O          62.2191   83.1080   14.8655 O.2     1  UNL1       -0.1681
     21 C          63.6065   83.0526   13.2616 C.ar    1  UNL1        0.1062
     22 C          64.3707   83.7459   12.1728 C.ar    1  UNL1        0.0184
     23 C          64.3589   83.1921   10.7787 C.ar    1  UNL1        0.0013
     24 C          63.5829   81.9453   10.4735 C.ar    1  UNL1        0.0001
     25 C          62.8187   81.2521   11.5623 C.ar    1  UNL1        0.0013
     26 C          62.8305   81.8058   12.9564 C.ar    1  UNL1        0.0184
@<TRIPOS>BOND
     1     6     7    2
     2     7     8   am
     3     8    10    1
     4    10    11    1
     5    11    12   ar
     6    12    13   ar
     7    13    14   ar
     8    14    15   ar
     9    15    16   ar
    10     7     1    1
    11     1     2   ar
    12     2     3   ar
    13     3     4   ar
    14     4    17    1
    15    17    18    1
    16    18    19    2
    17    18    20    2
    18    18    21    1
    19    21    22   ar
    20    22    23   ar
    21    23    24   ar
    22    24    25   ar
    23    25    26   ar
    24     4     5   ar
    25    16    11   ar
    26     5     1   ar
    27    26    21   ar
    28     8     9    1
@<TRIPOS>MOLECULE
*****
 26 28 0 0 0
SMALL
GASTEIGER

@<TRIPOS>ATOM
      1 C          63.4417   88.5231   15.5053 C.ar    1  UNL1        0.3038
      2 N          62.7694   88.2317   16.8141 N.ar    1  UNL1       -0.1024
      3 N          62.9930   86.7843   17.1380 N.ar    1  UNL1       -0.1094
      4 C          63.8036   86.1810   16.0293 C.ar    1  UNL1        0.2508
      5 O          64.0809   87.2557   15.0203 O.2     1  UNL1       -0.4143
      6 O          63.5079   91.1185   15.6027 O.2     1  UNL1       -0.2649
      7 C          63.4699   89.8490   14.8046 C.2     1  UNL1        0.3016
      8 N          63.4600   89.9055   13.3056 N.am    1  UNL1       -0.2930
      9 H          63.4351   89.0723   12.7818 H       1  UNL1        0.1502
     10 C          63.4882   91.2314   12.6049 C.3     1  UNL1        0.1168
     11 C          64.8001   91.8481   12.2190 C.ar    1  UNL1        0.0005
     12 C          65.0083   92.3561   10.8232 C.ar    1  UNL1        0.0181
     13 C          66.3201   92.9728   10.4374 C.ar    1  UNL1        0.0986
     14 N          67.4237   93.0815   11.4476 N.ar    1  UNL1       -0.2423
     15 C          67.2154   92.5735   12.8435 C.ar    1  UNL1        0.0986
     16 C          65.9036   91.9568   13.2292 C.ar    1  UNL1        0.0181
     17 C          64.2572   84.7538   15.9446 C.3     1  UNL1        0.2420
     18 S          63.9931   83.9554   14.7026 S.O2    1  UNL1        0.0178
     19 O          65.3590   84.3026   14.1889 O.2     1  UNL1       -0.1681
     20 O          62.6272   83.6082   15.2162 O.2     1  UNL1       -0.1681
     21 C          63.7290   83.1570   13.4605 C.ar    1  UNL1        0.1062
     22 C          64.1720   83.6783   12.1256 C.ar    1  UNL1        0.0184
     23 C          63.9079   82.8799   10.8834 C.ar    1  UNL1        0.0013
     24 C          63.2008   81.5602   10.9762 C.ar    1  UNL1        0.0001
     25 C          62.7579   81.0389   12.3112 C.ar    1  UNL1        0.0013
     26 C          63.0220   81.8374   13.5533 C.ar    1  UNL1        0.0184
@<TRIPOS>BOND
     1     6     7    2
     2     7     8   am
     3     8    10    1
     4    10    11    1
     5    11    12   ar
     6    12    13   ar
     7    13    14   ar
     8    14    15   ar
     9    15    16   ar
    10     7     1    1
    11     1     2   ar
    12     2     3   ar
    13     3     4   ar
    14     4    17    1
    15    17    18    1
    16    18    19    2
    17    18    20    2
    18    18    21    1
    19    21    22   ar
    20    22    23   ar
    21    23    24   ar
    22    24    25   ar
    23    25    26   ar
    24     4     5   ar
    25    16    11   ar
    26     5     1   ar
    27    26    21   ar
    28     8     9    1
@<TRIPOS>MOLECULE
*****
 26 28 0 0 0
SMALL
GASTEIGER

@<TRIPOS>ATOM
      1 C          62.5857   90.3757   11.4386 C.ar    1  UNL1        0.3038
      2 N          61.1865   90.8174   11.1271 N.ar    1  UNL1       -0.1024
      3 N          60.4473   89.6451   10.5532 N.ar    1  UNL1       -0.1094
      4 C          61.3897   88.4789   10.5099 C.ar    1  UNL1        0.2508
      5 O          62.7113   88.9304   11.0571 O.2     1  UNL1       -0.4143
      6 O          63.7756   91.3846   13.5161 O.2     1  UNL1       -0.2649
      7 C          63.6691   91.2293   12.0280 C.2     1  UNL1        0.3016
      8 N          64.6462   91.9278   11.1293 N.am    1  UNL1       -0.2930
      9 H          64.5763   91.8259   10.1525 H       1  UNL1        0.1502
     10 C          65.7296   92.7814   11.7187 C.3     1  UNL1        0.1168
     11 C          66.3242   93.8996   10.9148 C.ar    1  UNL1        0.0005
     12 C          67.1449   93.5939    9.6970 C.ar    1  UNL1        0.0181
     13 C          67.7395   94.7120    8.8933 C.ar    1  UNL1        0.0986
     14 N          67.5135   96.1359    9.3073 N.ar    1  UNL1       -0.2423
     15 C          66.6929   96.4417   10.5251 C.ar    1  UNL1        0.0986
     16 C          66.0983   95.3235   11.3288 C.ar    1  UNL1        0.0181
     17 C          61.0671   87.1028   10.0076 C.3     1  UNL1        0.2420
     18 S          61.8949   85.9312   10.4460 S.O2    1  UNL1        0.0178
     19 O          62.4152   85.7757    9.0477 O.2     1  UNL1       -0.1681
     20 O          61.3745   86.0868   11.8442 O.2     1  UNL1       -0.1681
     21 C          62.7226   84.7597   10.8844 C.ar    1  UNL1        0.1062
     22 C          63.5150   83.9820    9.8757 C.ar    1  UNL1        0.0184
     23 C          64.3429   82.8104   10.3141 C.ar    1  UNL1        0.0013
     24 C          64.3783   82.4164   11.7610 C.ar    1  UNL1        0.0001
     25 C          63.5858   83.1941   12.7696 C.ar    1  UNL1        0.0013
     26 C          62.7580   84.3658   12.3313 C.ar    1  UNL1        0.0184
@<TRIPOS>BOND
     1     6     7    2
     2     7     8   am
     3     8    10    1
     4    10    11    1
     5    11    12   ar
     6    12    13   ar
     7    13    14   ar
     8    14    15   ar
     9    15    16   ar
    10     7     1    1
    11     1     2   ar
    12     2     3   ar
    13     3     4   ar
    14     4    17    1
    15    17    18    1
    16    18    19    2
    17    18    20    2
    18    18    21    1
    19    21    22   ar
    20    22    23   ar
    21    23    24   ar
    22    24    25   ar
    23    25    26   ar
    24     4     5   ar
    25    16    11   ar
    26     5     1   ar
    27    26    21   ar
    28     8     9    1
@<TRIPOS>MOLECULE
*****
 26 28 0 0 0
SMALL
GASTEIGER

@<TRIPOS>ATOM
      1 C          63.6853   88.7642   15.9981 C.ar    1  UNL1        0.3038
      2 N          62.8950   88.2792   17.1772 N.ar    1  UNL1       -0.1024
      3 N          62.7626   86.7893   17.0652 N.ar    1  UNL1       -0.1094
      4 C          63.4711   86.3534   15.8169 C.ar    1  UNL1        0.2508
      5 O          64.0414   87.5740   15.1574 O.2     1  UNL1       -0.4143
      6 O          63.2847   91.3072   16.3484 O.2     1  UNL1       -0.2649
      7 C          64.0548   90.1892   15.7103 C.2     1  UNL1        0.3016
      8 N          65.1943   90.4963   14.7844 N.am    1  UNL1       -0.2930
      9 H          65.6997   89.7625   14.3656 H       1  UNL1        0.1502
     10 C          65.5637   91.9213   14.4966 C.3     1  UNL1        0.1168
     11 C          65.5373   92.4329   13.0867 C.ar    1  UNL1        0.0005
     12 C          64.7444   91.7074   12.0404 C.ar    1  UNL1        0.0181
     13 C          64.7180   92.2190   10.6306 C.ar    1  UNL1        0.0986
     14 N          65.4846   93.4560   10.2672 N.ar    1  UNL1       -0.2423
     15 C          66.2776   94.1815   11.3135 C.ar    1  UNL1        0.0986
     16 C          66.3039   93.6699   12.7233 C.ar    1  UNL1        0.0181
     17 C          63.5886   84.9444   15.3161 C.3     1  UNL1        0.2420
     18 S          63.5744   84.6689   13.8417 S.O2    1  UNL1        0.0178
     19 O          65.0368   84.3384   13.8894 O.2     1  UNL1       -0.1681
     20 O          62.1121   84.9995   13.7940 O.2     1  UNL1       -0.1681
     21 C          63.5603   84.3934   12.3673 C.ar    1  UNL1        0.1062
     22 C          62.7327   85.2471   11.4527 C.ar    1  UNL1        0.0184
     23 C          62.7185   84.9716    9.9783 C.ar    1  UNL1        0.0013
     24 C          63.5319   83.8425    9.4184 C.ar    1  UNL1        0.0001
     25 C          64.3595   82.9888   10.3330 C.ar    1  UNL1        0.0013
     26 C          64.3736   83.2643   11.8074 C.ar    1  UNL1        0.0184
@<TRIPOS>BOND
     1     6     7    2
     2     7     8   am
     3     8    10    1
     4    10    11    1
     5    11    12   ar
     6    12    13   ar
     7    13    14   ar
     8    14    15   ar
     9    15    16   ar
    10     7     1    1
    11     1     2   ar
    12     2     3   ar
    13     3     4   ar
    14     4    17    1
    15    17    18    1
    16    18    19    2
    17    18    20    2
    18    18    21    1
    19    21    22   ar
    20    22    23   ar
    21    23    24   ar
    22    24    25   ar
    23    25    26   ar
    24     4     5   ar
    25    16    11   ar
    26     5     1   ar
    27    26    21   ar
    28     8     9    1
@<TRIPOS>MOLECULE
*****
 26 28 0 0 0
SMALL
GASTEIGER

@<TRIPOS>ATOM
      1 C          63.3060   89.3620   13.1999 C.ar    1  UNL1        0.3038
      2 N          62.7686   89.9989   14.4471 N.ar    1  UNL1       -0.1024
      3 N          63.6448   91.1686   14.7848 N.ar    1  UNL1       -0.1094
      4 C          64.7238   91.2546   13.7464 C.ar    1  UNL1        0.2508
      5 O          64.5144   90.1381   12.7668 O.2     1  UNL1       -0.4143
      6 O          61.5782   88.3161   11.5657 O.2     1  UNL1       -0.2649
      7 C          62.7353   88.1601   12.5073 C.2     1  UNL1        0.3016
      8 N          63.3218   86.8021   12.7564 N.am    1  UNL1       -0.2930
      9 H          64.0812   86.6997   13.3745 H       1  UNL1        0.1502
     10 C          62.7511   85.6002   12.0639 C.3     1  UNL1        0.1168
     11 C          62.7183   84.2751   12.7662 C.ar    1  UNL1        0.0005
     12 C          62.7061   84.2208   14.2651 C.ar    1  UNL1        0.0181
     13 C          62.6733   82.8957   14.9673 C.ar    1  UNL1        0.0986
     14 N          62.6527   81.6250   14.1706 N.ar    1  UNL1       -0.2423
     15 C          62.6648   81.6793   12.6716 C.ar    1  UNL1        0.0986
     16 C          62.6976   83.0043   11.9694 C.ar    1  UNL1        0.0181
     17 C          65.8197   92.2776   13.6963 C.3     1  UNL1        0.2420
     18 S          66.4155   92.6745   12.3781 S.O2    1  UNL1        0.0178
     19 O          65.0485   93.0156   11.8631 O.2     1  UNL1       -0.1681
     20 O          67.7824   92.3334   12.8932 O.2     1  UNL1       -0.1681
     21 C          67.0112   93.0714   11.0600 C.ar    1  UNL1        0.1062
     22 C          66.7295   94.4292   10.4882 C.ar    1  UNL1        0.0184
     23 C          67.3253   94.8262    9.1700 C.ar    1  UNL1        0.0013
     24 C          68.2025   93.8653    8.4236 C.ar    1  UNL1        0.0001
     25 C          68.4842   92.5075    8.9954 C.ar    1  UNL1        0.0013
     26 C          67.8884   92.1105   10.3137 C.ar    1  UNL1        0.0184
@<TRIPOS>BOND
     1     6     7    2
     2     7     8   am
     3     8    10    1
     4    10    11    1
     5    11    12   ar
     6    12    13   ar
     7    13    14   ar
     8    14    15   ar
     9    15    16   ar
    10     7     1    1
    11     1     2   ar
    12     2     3   ar
    13     3     4   ar
    14     4    17    1
    15    17    18    1
    16    18    19    2
    17    18    20    2
    18    18    21    1
    19    21    22   ar
    20    22    23   ar
    21    23    24   ar
    22    24    25   ar
    23    25    26   ar
    24     4     5   ar
    25    16    11   ar
    26     5     1   ar
    27    26    21   ar
    28     8     9    1
@<TRIPOS>MOLECULE
*****
 26 28 0 0 0
SMALL
GASTEIGER

@<TRIPOS>ATOM
      1 C          63.8769   88.0670   15.0197 C.ar    1  UNL1        0.3038
      2 N          63.5828   87.1452   16.1659 N.ar    1  UNL1       -0.1024
      3 N          63.3607   85.7700   15.6095 N.ar    1  UNL1       -0.1094
      4 C          63.5176   85.8419   14.1194 C.ar    1  UNL1        0.2508
      5 O          63.8367   87.2616   13.7550 O.2     1  UNL1       -0.4143
      6 O          63.3219   90.4033   16.0114 O.2     1  UNL1       -0.2649
      7 C          64.1614   89.5363   15.1207 C.2     1  UNL1        0.3016
      8 N          65.2855   90.1386   14.3308 N.am    1  UNL1       -0.2930
      9 H          65.8365   89.5696   13.7462 H       1  UNL1        0.1502
     10 C          65.5700   91.6079   14.4318 C.3     1  UNL1        0.1168
     11 C          65.6254   92.4481   13.1904 C.ar    1  UNL1        0.0005
     12 C          65.0024   91.9509   11.9197 C.ar    1  UNL1        0.0181
     13 C          65.0578   92.7911   10.6784 C.ar    1  UNL1        0.0986
     14 N          65.7362   94.1286   10.7077 N.ar    1  UNL1       -0.2423
     15 C          66.3592   94.6259   11.9784 C.ar    1  UNL1        0.0986
     16 C          66.3037   93.7857   13.2197 C.ar    1  UNL1        0.0181
     17 C          63.3797   84.6955   13.1619 C.3     1  UNL1        0.2420
     18 S          62.9098   84.9425   11.7590 S.O2    1  UNL1        0.0178
     19 O          63.9747   84.0220   11.2404 O.2     1  UNL1       -0.1681
     20 O          61.8450   85.8629   12.2777 O.2     1  UNL1       -0.1681
     21 C          62.4400   85.1894   10.3561 C.ar    1  UNL1        0.1062
     22 C          63.2249   84.6510    9.1967 C.ar    1  UNL1        0.0184
     23 C          62.7550   84.8979    7.7937 C.ar    1  UNL1        0.0013
     24 C          61.5004   85.6831    7.5501 C.ar    1  UNL1        0.0001
     25 C          60.7155   86.2215    8.7095 C.ar    1  UNL1        0.0013
     26 C          61.1854   85.9746   10.1126 C.ar    1  UNL1        0.0184
@<TRIPOS>BOND
     1     6     7    2
     2     7     8   am
     3     8    10    1
     4    10    11    1
     5    11    12   ar
     6    12    13   ar
     7    13    14   ar
     8    14    15   ar
     9    15    16   ar
    10     7     1    1
    11     1     2   ar
    12     2     3   ar
    13     3     4   ar
    14     4    17    1
    15    17    18    1
    16    18    19    2
    17    18    20    2
    18    18    21    1
    19    21    22   ar
    20    22    23   ar
    21    23    24   ar
    22    24    25   ar
    23    25    26   ar
    24     4     5   ar
    25    16    11   ar
    26     5     1   ar
    27    26    21   ar
    28     8     9    1
@<TRIPOS>MOLECULE
*****
 26 28 0 0 0
SMALL
GASTEIGER

@<TRIPOS>ATOM
      1 C          63.2152   90.3236   12.5863 C.ar    1  UNL1        0.3038
      2 N          63.5983   89.9732   13.9936 N.ar    1  UNL1       -0.1024
      3 N          64.8004   90.7905   14.3638 N.ar    1  UNL1       -0.1094
      4 C          65.1602   91.6459   13.1853 C.ar    1  UNL1        0.2508
      5 O          64.1805   91.3573   12.0868 O.2     1  UNL1       -0.4143
      6 O          61.0481   90.6480   11.1905 O.2     1  UNL1       -0.2649
      7 C          62.0682   89.7422   11.8141 C.2     1  UNL1        0.3016
      8 N          61.9411   88.2549   11.6656 N.am    1  UNL1       -0.2930
      9 H          62.6106   87.6604   12.0749 H       1  UNL1        0.1502
     10 C          60.7941   87.6736   10.8935 C.3     1  UNL1        0.1168
     11 C          61.0557   86.8560    9.6633 C.ar    1  UNL1        0.0005
     12 C          59.9628   86.6418    8.6586 C.ar    1  UNL1        0.0181
     13 C          60.2245   85.8243    7.4285 C.ar    1  UNL1        0.0986
     14 N          61.5791   85.2209    7.2032 N.ar    1  UNL1       -0.2423
     15 C          62.6721   85.4351    8.2079 C.ar    1  UNL1        0.0986
     16 C          62.4104   86.2526    9.4380 C.ar    1  UNL1        0.0181
     17 C          66.2997   92.6191   13.1173 C.3     1  UNL1        0.2420
     18 S          66.4255   93.5458   11.9446 S.O2    1  UNL1        0.0178
     19 O          66.1101   94.7127   12.8329 O.2     1  UNL1       -0.1681
     20 O          66.7410   92.3789   11.0564 O.2     1  UNL1       -0.1681
     21 C          66.5514   94.4725   10.7719 C.ar    1  UNL1        0.1062
     22 C          67.2859   94.0295    9.5414 C.ar    1  UNL1        0.0184
     23 C          67.4118   94.9563    8.3686 C.ar    1  UNL1        0.0013
     24 C          66.8031   96.3260    8.4264 C.ar    1  UNL1        0.0001
     25 C          66.0686   96.7690    9.6569 C.ar    1  UNL1        0.0013
     26 C          65.9427   95.8422   10.8297 C.ar    1  UNL1        0.0184
@<TRIPOS>BOND
     1     6     7    2
     2     7     8   am
     3     8    10    1
     4    10    11    1
     5    11    12   ar
     6    12    13   ar
     7    13    14   ar
     8    14    15   ar
     9    15    16   ar
    10     7     1    1
    11     1     2   ar
    12     2     3   ar
    13     3     4   ar
    14     4    17    1
    15    17    18    1
    16    18    19    2
    17    18    20    2
    18    18    21    1
    19    21    22   ar
    20    22    23   ar
    21    23    24   ar
    22    24    25   ar
    23    25    26   ar
    24     4     5   ar
    25    16    11   ar
    26     5     1   ar
    27    26    21   ar
    28     8     9    1
