@<TRIPOS>MOLECULE
*****
 15 17 0 0 0
SMALL
GASTEIGER

@<TRIPOS>ATOM
      1 C          64.6758   91.5676   13.7775 C.3     1  UNL1        0.2210
      2 C          65.9351   92.1172   14.3793 C.3     1  UNL1        0.0983
      3 C          67.1980   91.3493   14.6353 C.3     1  UNL1        0.0209
      4 C          68.1961   92.2886   15.2450 C.3     1  UNL1        0.0172
      5 C          68.9636   93.4387   15.8266 C.3     1  UNL1        0.0171
      6 C          67.5499   93.6370   15.3658 C.3     1  UNL1        0.0541
      7 N          66.1526   93.5310   14.8308 N.3     1  UNL1       -0.2966
      8 H          66.0344   94.1680   14.0429 H       1  UNL1        0.1233
      9 O          63.5863   91.0442   14.6657 O.3     1  UNL1       -0.4724
     10 C          64.3574   87.1541   14.8160 C.ar    1  UNL1        0.0238
     11 C          63.7224   86.7896   16.1251 C.ar    1  UNL1        0.0991
     12 N          63.0420   87.8433   16.9478 N.ar    1  UNL1       -0.2391
     13 C          62.9967   89.2615   16.4614 C.ar    1  UNL1        0.1356
     14 C          63.6317   89.6260   15.1522 C.ar    1  UNL1        0.1577
     15 C          64.3120   88.5723   14.3295 C.ar    1  UNL1        0.0401
@<TRIPOS>BOND
     1    10    11   ar
     2    11    12   ar
     3    12    13   ar
     4    13    14   ar
     5    14     9    1
     6     9     1    1
     7     2     1    1
     8     2     3    1
     9     4     3    1
    10     4     5    1
    11     6     5    1
    12     6     7    1
    13    14    15   ar
    14    15    10   ar
    15     7     2    1
    16     6     4    1
    17     7     8    1
@<TRIPOS>MOLECULE
*****
 15 17 0 0 0
SMALL
GASTEIGER

@<TRIPOS>ATOM
      1 C          64.9652   92.0362   12.8441 C.3     1  UNL1        0.2210
      2 C          66.1170   92.4281   13.7215 C.3     1  UNL1        0.0983
      3 C          67.4034   91.6725   13.8776 C.3     1  UNL1        0.0209
      4 C          68.2661   92.4219   14.8494 C.3     1  UNL1        0.0172
      5 C          68.8870   93.3706   15.8315 C.3     1  UNL1        0.0171
      6 C          67.5129   93.6406   15.2939 C.3     1  UNL1        0.0541
      7 N          66.1847   93.6444   14.5968 N.3     1  UNL1       -0.2966
      8 H          66.0950   94.4860   14.0275 H       1  UNL1        0.1233
      9 O          65.1553   91.9292   11.3601 O.3     1  UNL1       -0.4724
     10 C          68.2456   93.3355    9.3051 C.ar    1  UNL1        0.0238
     11 C          67.8971   94.7925    9.2308 C.ar    1  UNL1        0.0991
     12 N          66.6348   95.2952    9.8662 N.ar    1  UNL1       -0.2391
     13 C          65.7209   94.3408   10.5760 C.ar    1  UNL1        0.1356
     14 C          66.0693   92.8837   10.6503 C.ar    1  UNL1        0.1577
     15 C          67.3316   92.3811   10.0149 C.ar    1  UNL1        0.0401
@<TRIPOS>BOND
     1    10    11   ar
     2    11    12   ar
     3    12    13   ar
     4    13    14   ar
     5    14     9    1
     6     9     1    1
     7     2     1    1
     8     2     3    1
     9     4     3    1
    10     4     5    1
    11     6     5    1
    12     6     7    1
    13    14    15   ar
    14    15    10   ar
    15     7     2    1
    16     6     4    1
    17     7     8    1
@<TRIPOS>MOLECULE
*****
 15 17 0 0 0
SMALL
GASTEIGER

@<TRIPOS>ATOM
      1 C          65.3116   92.3967   12.4119 C.3     1  UNL1        0.2210
      2 C          66.3411   92.6362   13.4763 C.3     1  UNL1        0.0983
      3 C          67.6127   91.8627   13.6628 C.3     1  UNL1        0.0209
      4 C          68.3373   92.4397   14.8428 C.3     1  UNL1        0.0172
      5 C          68.8169   93.2121   16.0358 C.3     1  UNL1        0.0171
      6 C          67.5134   93.5698   15.3854 C.3     1  UNL1        0.0541
      7 N          66.2797   93.6912   14.5408 N.3     1  UNL1       -0.2966
      8 H          66.2443   94.6153   14.1106 H       1  UNL1        0.1233
      9 O          63.9466   91.9007   12.7868 O.3     1  UNL1       -0.4724
     10 C          62.2161   89.4148   10.2225 C.ar    1  UNL1        0.0238
     11 C          62.3475   88.1134   10.9568 C.ar    1  UNL1        0.0991
     12 N          63.0119   88.0745   12.3010 N.ar    1  UNL1       -0.2391
     13 C          63.5449   89.3369   12.9111 C.ar    1  UNL1        0.1356
     14 C          63.4135   90.6382   12.1768 C.ar    1  UNL1        0.1577
     15 C          62.7491   90.6772   10.8326 C.ar    1  UNL1        0.0401
@<TRIPOS>BOND
     1    10    11   ar
     2    11    12   ar
     3    12    13   ar
     4    13    14   ar
     5    14     9    1
     6     9     1    1
     7     2     1    1
     8     2     3    1
     9     4     3    1
    10     4     5    1
    11     6     5    1
    12     6     7    1
    13    14    15   ar
    14    15    10   ar
    15     7     2    1
    16     6     4    1
    17     7     8    1
@<TRIPOS>MOLECULE
*****
 15 17 0 0 0
SMALL
GASTEIGER

@<TRIPOS>ATOM
      1 C          62.9069   85.7313   12.2003 C.3     1  UNL1        0.2210
      2 C          61.9636   86.1773   11.1225 C.3     1  UNL1        0.0983
      3 C          62.0497   85.8139    9.6697 C.3     1  UNL1        0.0209
      4 C          60.9080   86.4770    8.9577 C.3     1  UNL1        0.0172
      5 C          59.6954   87.2498    8.5307 C.3     1  UNL1        0.0171
      6 C          60.1164   87.2502    9.9704 C.3     1  UNL1        0.0541
      7 N          60.7688   87.0649   11.3084 N.3     1  UNL1       -0.2966
      8 H          60.1121   86.6301   11.9565 H       1  UNL1        0.1233
      9 O          62.4062   84.8825   13.3311 O.3     1  UNL1       -0.4724
     10 C          62.8765   81.2295   11.8531 C.ar    1  UNL1        0.0238
     11 C          62.7296   80.4004   13.0944 C.ar    1  UNL1        0.0991
     12 N          62.4749   81.0653   14.4146 N.ar    1  UNL1       -0.2391
     13 C          62.3671   82.5593   14.4935 C.ar    1  UNL1        0.1356
     14 C          62.5140   83.3884   13.2522 C.ar    1  UNL1        0.1577
     15 C          62.7687   82.7235   11.9320 C.ar    1  UNL1        0.0401
@<TRIPOS>BOND
     1    10    11   ar
     2    11    12   ar
     3    12    13   ar
     4    13    14   ar
     5    14     9    1
     6     9     1    1
     7     2     1    1
     8     2     3    1
     9     4     3    1
    10     4     5    1
    11     6     5    1
    12     6     7    1
    13    14    15   ar
    14    15    10   ar
    15     7     2    1
    16     6     4    1
    17     7     8    1
@<TRIPOS>MOLECULE
*****
 15 17 0 0 0
SMALL
GASTEIGER

@<TRIPOS>ATOM
      1 C          64.0045   90.7895   13.3812 C.3     1  UNL1        0.2210
      2 C          62.9520   90.4592   12.3646 C.3     1  UNL1        0.0983
      3 C          63.0717   90.6418   10.8806 C.3     1  UNL1        0.0209
      4 C          61.7888   90.1837   10.2523 C.3     1  UNL1        0.0172
      5 C          60.4213   89.6648    9.9198 C.3     1  UNL1        0.0171
      6 C          60.8764   89.7181   11.3482 C.3     1  UNL1        0.0541
      7 N          61.5954   89.8883   12.6536 N.3     1  UNL1       -0.2966
      8 H          61.6916   88.9844   13.1162 H       1  UNL1        0.1233
      9 O          64.7068   92.1139   13.3304 O.3     1  UNL1       -0.4724
     10 C          67.4200   92.7340   16.1596 C.ar    1  UNL1        0.0238
     11 C          68.6876   92.6291   15.3646 C.ar    1  UNL1        0.0991
     12 N          68.6283   92.3525   13.8915 N.ar    1  UNL1       -0.2391
     13 C          67.3014   92.1808   13.2135 C.ar    1  UNL1        0.1356
     14 C          66.0338   92.2856   14.0085 C.ar    1  UNL1        0.1577
     15 C          66.0931   92.5623   15.4816 C.ar    1  UNL1        0.0401
@<TRIPOS>BOND
     1    10    11   ar
     2    11    12   ar
     3    12    13   ar
     4    13    14   ar
     5    14     9    1
     6     9     1    1
     7     2     1    1
     8     2     3    1
     9     4     3    1
    10     4     5    1
    11     6     5    1
    12     6     7    1
    13    14    15   ar
    14    15    10   ar
    15     7     2    1
    16     6     4    1
    17     7     8    1
@<TRIPOS>MOLECULE
*****
 15 17 0 0 0
SMALL
GASTEIGER

@<TRIPOS>ATOM
      1 C          65.7028   92.2616   13.0204 C.3     1  UNL1        0.2210
      2 C          66.1812   93.1235   11.8898 C.3     1  UNL1        0.0983
      3 C          66.8538   92.6427   10.6381 C.3     1  UNL1        0.0209
      4 C          67.1593   93.8396    9.7871 C.3     1  UNL1        0.0172
      5 C          67.3318   95.1962    9.1708 C.3     1  UNL1        0.0171
      6 C          66.6756   95.0600   10.5128 C.3     1  UNL1        0.0541
      7 N          66.0711   94.6174   11.8123 N.3     1  UNL1       -0.2966
      8 H          65.0902   94.8946   11.8500 H       1  UNL1        0.1233
      9 O          64.2417   91.9539   13.1627 O.3     1  UNL1       -0.4724
     10 C          62.5225   89.8432   10.2748 C.ar    1  UNL1        0.0238
     11 C          62.4425   88.4918   10.9207 C.ar    1  UNL1        0.0991
     12 N          62.9622   88.2944   12.3138 N.ar    1  UNL1       -0.2391
     13 C          63.5619   89.4484   13.0612 C.ar    1  UNL1        0.1356
     14 C          63.6419   90.7998   12.4153 C.ar    1  UNL1        0.1577
     15 C          63.1222   90.9973   11.0221 C.ar    1  UNL1        0.0401
@<TRIPOS>BOND
     1    10    11   ar
     2    11    12   ar
     3    12    13   ar
     4    13    14   ar
     5    14     9    1
     6     9     1    1
     7     2     1    1
     8     2     3    1
     9     4     3    1
    10     4     5    1
    11     6     5    1
    12     6     7    1
    13    14    15   ar
    14    15    10   ar
    15     7     2    1
    16     6     4    1
    17     7     8    1
@<TRIPOS>MOLECULE
*****
 15 17 0 0 0
SMALL
GASTEIGER

@<TRIPOS>ATOM
      1 C          62.0706   85.8037   11.5170 C.3     1  UNL1        0.2210
      2 C          62.2932   87.2584   11.2262 C.3     1  UNL1        0.0983
      3 C          61.9962   87.9539    9.9308 C.3     1  UNL1        0.0209
      4 C          62.3714   89.3983   10.0836 C.3     1  UNL1        0.0172
      5 C          62.8286   90.7565   10.5266 C.3     1  UNL1        0.0171
      6 C          62.9002   89.5952   11.4735 C.3     1  UNL1        0.0541
      7 N          62.8519   88.2727   12.1796 N.3     1  UNL1       -0.2966
      8 H          62.2529   88.3413   13.0023 H       1  UNL1        0.1233
      9 O          62.5575   85.2138   12.8073 O.3     1  UNL1       -0.4724
     10 C          62.9501   81.3669   11.9144 C.ar    1  UNL1        0.0238
     11 C          62.8360   80.7469   13.2755 C.ar    1  UNL1        0.0991
     12 N          62.6291   81.6159   14.4805 N.ar    1  UNL1       -0.2391
     13 C          62.5363   83.1048   14.3245 C.ar    1  UNL1        0.1356
     14 C          62.6503   83.7248   12.9634 C.ar    1  UNL1        0.1577
     15 C          62.8572   82.8558   11.7584 C.ar    1  UNL1        0.0401
@<TRIPOS>BOND
     1    10    11   ar
     2    11    12   ar
     3    12    13   ar
     4    13    14   ar
     5    14     9    1
     6     9     1    1
     7     2     1    1
     8     2     3    1
     9     4     3    1
    10     4     5    1
    11     6     5    1
    12     6     7    1
    13    14    15   ar
    14    15    10   ar
    15     7     2    1
    16     6     4    1
    17     7     8    1
@<TRIPOS>MOLECULE
*****
 15 17 0 0 0
SMALL
GASTEIGER

@<TRIPOS>ATOM
      1 C          63.1052   83.5203   14.9216 C.3     1  UNL1        0.2210
      2 C          63.3449   83.4869   13.4412 C.3     1  UNL1        0.0983
      3 C          64.3441   82.6239   12.7292 C.3     1  UNL1        0.0209
      4 C          64.2442   82.9142   11.2609 C.3     1  UNL1        0.0172
      5 C          63.9214   83.4064    9.8812 C.3     1  UNL1        0.0171
      6 C          63.1833   83.9565   11.0656 C.3     1  UNL1        0.0541
      7 N          62.6275   84.3104   12.4131 N.3     1  UNL1       -0.2966
      8 H          61.6287   84.1050   12.4404 H       1  UNL1        0.1233
      9 O          63.9890   84.3489   15.8060 O.3     1  UNL1       -0.4724
     10 C          64.3205   88.1649   14.7674 C.ar    1  UNL1        0.0238
     11 C          63.5466   88.8267   15.8687 C.ar    1  UNL1        0.0991
     12 N          62.9201   87.9959   16.9491 N.ar    1  UNL1       -0.2391
     13 C          63.0675   86.5033   16.9282 C.ar    1  UNL1        0.1356
     14 C          63.8415   85.8416   15.8269 C.ar    1  UNL1        0.1577
     15 C          64.4680   86.6723   14.7465 C.ar    1  UNL1        0.0401
@<TRIPOS>BOND
     1    10    11   ar
     2    11    12   ar
     3    12    13   ar
     4    13    14   ar
     5    14     9    1
     6     9     1    1
     7     2     1    1
     8     2     3    1
     9     4     3    1
    10     4     5    1
    11     6     5    1
    12     6     7    1
    13    14    15   ar
    14    15    10   ar
    15     7     2    1
    16     6     4    1
    17     7     8    1
@<TRIPOS>MOLECULE
*****
 15 17 0 0 0
SMALL
GASTEIGER

@<TRIPOS>ATOM
      1 C          63.8703   84.3902   15.5083 C.3     1  UNL1        0.2210
      2 C          63.6448   85.8251   15.8828 C.3     1  UNL1        0.0983
      3 C          63.0015   86.3159   17.1459 C.3     1  UNL1        0.0209
      4 C          62.9822   87.8153   17.1038 C.3     1  UNL1        0.0172
      5 C          63.1026   89.2758   16.7836 C.3     1  UNL1        0.0171
      6 C          63.6136   88.2510   15.8147 C.3     1  UNL1        0.0541
      7 N          64.0231   87.0210   15.0602 N.3     1  UNL1       -0.2966
      8 H          65.0312   87.0296   14.9051 H       1  UNL1        0.1233
      9 O          62.9323   83.7068   14.5581 O.3     1  UNL1       -0.4724
     10 C          62.9705   84.4344   10.6569 C.ar    1  UNL1        0.0238
     11 C          63.9701   83.4188   10.1889 C.ar    1  UNL1        0.0991
     12 N          64.6239   82.4991   11.1773 N.ar    1  UNL1       -0.2391
     13 C          64.2779   82.5951   12.6336 C.ar    1  UNL1        0.1356
     14 C          63.2783   83.6107   13.1016 C.ar    1  UNL1        0.1577
     15 C          62.6245   84.5304   12.1133 C.ar    1  UNL1        0.0401
@<TRIPOS>BOND
     1    10    11   ar
     2    11    12   ar
     3    12    13   ar
     4    13    14   ar
     5    14     9    1
     6     9     1    1
     7     2     1    1
     8     2     3    1
     9     4     3    1
    10     4     5    1
    11     6     5    1
    12     6     7    1
    13    14    15   ar
    14    15    10   ar
    15     7     2    1
    16     6     4    1
    17     7     8    1
