@<TRIPOS>MOLECULE
*****
 28 31 0 0 0
SMALL
GASTEIGER

@<TRIPOS>ATOM
      1 C          64.8083   90.7222   13.4872 C.ar    1  UNL1        0.0044
      2 C          64.1177   90.8999   12.1676 C.ar    1  UNL1        0.0002
      3 C          64.6184   91.9222   11.1907 C.ar    1  UNL1        0.0022
      4 C          65.8098   92.7667   11.5335 C.ar    1  UNL1        0.0275
      5 C          66.5004   92.5889   12.8532 C.ar    1  UNL1        0.1401
      6 F          67.6917   93.4334   13.1960 F       1  UNL1       -0.2042
      7 C          65.9996   91.5667   13.8300 C.ar    1  UNL1        0.0297
      8 C          66.3105   93.7890   10.5567 C.ar    1  UNL1        0.0024
      9 C          65.7457   95.1784   10.5696 C.ar    1  UNL1        0.0032
     10 C          66.2464   96.2008    9.5927 C.ar    1  UNL1        0.0366
     11 C          67.3120   95.8335    8.6030 C.ar    1  UNL1        0.1337
     12 O          67.8128   96.8558    7.6262 O.3     1  UNL1       -0.5055
     13 C          67.8769   94.4439    8.5901 C.ar    1  UNL1        0.0366
     14 C          67.3761   93.4217    9.5669 C.ar    1  UNL1        0.0032
     15 H          67.4599   97.7238    7.6342 H       1  UNL1        0.2922
     16 C          63.3061   87.6554   16.4177 C.ar    1  UNL1       -0.0157
     17 C          63.9024   87.2170   15.1131 C.ar    1  UNL1       -0.0038
     18 C          64.4031   88.2393   14.1363 C.ar    1  UNL1        0.0019
     19 C          64.3075   89.6999   14.4641 C.ar    1  UNL1        0.0275
     20 C          63.7112   90.1382   15.7688 C.ar    1  UNL1        0.1398
     21 F          63.6155   91.5988   16.0966 F       1  UNL1       -0.2042
     22 C          63.2105   89.1160   16.7456 C.ar    1  UNL1        0.0257
     23 C          62.8053   86.6331   17.3946 C.3     1  UNL1        0.0509
     24 C          62.3888   86.0108   18.6943 C.3     1  UNL1        0.0100
     25 C          62.8738   87.4300   18.6636 C.3     1  UNL1        0.0100
     26 O          61.1752   85.1920   15.9748 O.co2   1  UNL1       -0.5489
     27 C          62.5630   85.4812   16.4649 C.2     1  UNL1        0.0534
     28 O          63.7087   84.6186   16.0251 O.co2   1  UNL1       -0.5489
@<TRIPOS>UNITY_ATOM_ATTR
26 1
charge -1
@<TRIPOS>BOND
     1    26    27   ar
     2    27    28   ar
     3    27    23    1
     4    23    16    1
     5    16    17   ar
     6    17    18   ar
     7    18    19   ar
     8    19     1    1
     9     1     2   ar
    10     2     3   ar
    11     3     4   ar
    12     4     8    1
    13     8     9   ar
    14     9    10   ar
    15    10    11   ar
    16    11    12    1
    17    11    13   ar
    18    13    14   ar
    19     4     5   ar
    20     5     6    1
    21     5     7   ar
    22    19    20   ar
    23    20    21    1
    24    20    22   ar
    25    23    24    1
    26    24    25    1
    27    25    23    1
    28    22    16   ar
    29     7     1   ar
    30    14     8   ar
    31    12    15    1
@<TRIPOS>MOLECULE
*****
 28 31 0 0 0
SMALL
GASTEIGER

@<TRIPOS>ATOM
      1 C          58.2724   93.9963   -0.5667 C.ar    1  UNL1        0.0044
      2 C          58.0648   95.4617   -0.8104 C.ar    1  UNL1        0.0002
      3 C          56.8269   95.9375   -1.5114 C.ar    1  UNL1        0.0022
      4 C          55.7966   94.9478   -1.9686 C.ar    1  UNL1        0.0275
      5 C          56.0042   93.4824   -1.7248 C.ar    1  UNL1        0.1401
      6 F          54.9739   92.4927   -2.1820 F       1  UNL1       -0.2042
      7 C          57.2420   93.0066   -1.0239 C.ar    1  UNL1        0.0297
      8 C          54.5588   95.4236   -2.6695 C.ar    1  UNL1        0.0024
      9 C          53.3063   95.6836   -1.8861 C.ar    1  UNL1        0.0032
     10 C          52.0684   96.1594   -2.5871 C.ar    1  UNL1        0.0366
     11 C          52.0830   96.3751   -4.0714 C.ar    1  UNL1        0.1337
     12 O          50.8451   96.8509   -4.7723 O.3     1  UNL1       -0.5055
     13 C          53.3355   96.1151   -4.8548 C.ar    1  UNL1        0.0366
     14 C          54.5733   95.6393   -4.1539 C.ar    1  UNL1        0.0032
     15 H          50.0628   97.0133   -4.2830 H       1  UNL1        0.2922
     16 C          61.9859   92.5689    1.5362 C.ar    1  UNL1       -0.0157
     17 C          60.7844   92.9821    2.3335 C.ar    1  UNL1       -0.0038
     18 C          59.5466   93.4579    1.6325 C.ar    1  UNL1        0.0019
     19 C          59.5103   93.5204    0.1343 C.ar    1  UNL1        0.0275
     20 C          60.7117   93.1072   -0.6630 C.ar    1  UNL1        0.1398
     21 F          60.6753   93.1697   -2.1613 F       1  UNL1       -0.2042
     22 C          61.9495   92.6314    0.0379 C.ar    1  UNL1        0.0257
     23 C          63.2238   92.0930    2.2372 C.3     1  UNL1        0.0509
     24 C          64.1172   91.2698    3.1169 C.3     1  UNL1        0.0100
     25 C          62.6619   90.9272    2.9956 C.3     1  UNL1        0.0100
     26 O          65.2835   92.6645    0.7603 O.co2   1  UNL1       -0.5489
     27 C          64.2155   93.0936    1.7222 C.2     1  UNL1        0.0534
     28 O          64.1392   94.5235    2.1691 O.co2   1  UNL1       -0.5489
@<TRIPOS>UNITY_ATOM_ATTR
26 1
charge -1
@<TRIPOS>BOND
     1    26    27   ar
     2    27    28   ar
     3    27    23    1
     4    23    16    1
     5    16    17   ar
     6    17    18   ar
     7    18    19   ar
     8    19     1    1
     9     1     2   ar
    10     2     3   ar
    11     3     4   ar
    12     4     8    1
    13     8     9   ar
    14     9    10   ar
    15    10    11   ar
    16    11    12    1
    17    11    13   ar
    18    13    14   ar
    19     4     5   ar
    20     5     6    1
    21     5     7   ar
    22    19    20   ar
    23    20    21    1
    24    20    22   ar
    25    23    24    1
    26    24    25    1
    27    25    23    1
    28    22    16   ar
    29     7     1   ar
    30    14     8   ar
    31    12    15    1
@<TRIPOS>MOLECULE
*****
 28 31 0 0 0
SMALL
GASTEIGER

@<TRIPOS>ATOM
      1 C          63.4984   86.3838   13.7754 C.ar    1  UNL1        0.0044
      2 C          64.3935   86.8556   14.8828 C.ar    1  UNL1        0.0002
      3 C          64.8964   88.2688   14.8903 C.ar    1  UNL1        0.0022
      4 C          64.5044   89.2102   13.7903 C.ar    1  UNL1        0.0275
      5 C          63.6093   88.7384   12.6828 C.ar    1  UNL1        0.1401
      6 F          63.2172   89.6798   11.5828 F       1  UNL1       -0.2042
      7 C          63.1064   87.3253   12.6754 C.ar    1  UNL1        0.0297
      8 C          65.0073   90.6233   13.7976 C.ar    1  UNL1        0.0024
      9 C          64.9211   91.4565   12.5534 C.ar    1  UNL1        0.0032
     10 C          65.4240   92.8697   12.5607 C.ar    1  UNL1        0.0366
     11 C          66.0132   93.4496   13.8124 C.ar    1  UNL1        0.1337
     12 O          66.5161   94.8627   13.8198 O.3     1  UNL1       -0.5055
     13 C          66.0994   92.6163   15.0567 C.ar    1  UNL1        0.0366
     14 C          65.5964   91.2032   15.0493 C.ar    1  UNL1        0.0032
     15 H          66.4622   95.3833   13.0425 H       1  UNL1        0.2922
     16 C          61.9896   82.1444   13.7530 C.ar    1  UNL1       -0.0157
     17 C          62.4741   82.7748   12.4811 C.ar    1  UNL1       -0.0038
     18 C          62.9770   84.1879   12.4886 C.ar    1  UNL1        0.0019
     19 C          62.9955   84.9707   13.7680 C.ar    1  UNL1        0.0275
     20 C          62.5110   84.3403   15.0399 C.ar    1  UNL1        0.1398
     21 F          62.5294   85.1231   16.3194 F       1  UNL1       -0.2042
     22 C          62.0080   82.9272   15.0325 C.ar    1  UNL1        0.0257
     23 C          61.4866   80.7312   13.7456 C.3     1  UNL1        0.0509
     24 C          60.5528   79.5666   13.8930 C.3     1  UNL1        0.0100
     25 C          60.0713   80.9561   14.1890 C.3     1  UNL1        0.0100
     26 O          62.7604   79.3330   11.9644 O.co2   1  UNL1       -0.5489
     27 C          62.7272   80.0157   13.2997 C.2     1  UNL1        0.0534
     28 O          63.9347   79.9828   14.1890 O.co2   1  UNL1       -0.5489
@<TRIPOS>UNITY_ATOM_ATTR
26 1
charge -1
@<TRIPOS>BOND
     1    26    27   ar
     2    27    28   ar
     3    27    23    1
     4    23    16    1
     5    16    17   ar
     6    17    18   ar
     7    18    19   ar
     8    19     1    1
     9     1     2   ar
    10     2     3   ar
    11     3     4   ar
    12     4     8    1
    13     8     9   ar
    14     9    10   ar
    15    10    11   ar
    16    11    12    1
    17    11    13   ar
    18    13    14   ar
    19     4     5   ar
    20     5     6    1
    21     5     7   ar
    22    19    20   ar
    23    20    21    1
    24    20    22   ar
    25    23    24    1
    26    24    25    1
    27    25    23    1
    28    22    16   ar
    29     7     1   ar
    30    14     8   ar
    31    12    15    1
@<TRIPOS>MOLECULE
*****
 28 31 0 0 0
SMALL
GASTEIGER

@<TRIPOS>ATOM
      1 C          63.4892   86.3871   13.7395 C.ar    1  UNL1        0.0044
      2 C          64.3744   86.8775   14.8468 C.ar    1  UNL1        0.0002
      3 C          64.8726   88.2923   14.8379 C.ar    1  UNL1        0.0022
      4 C          64.4857   89.2167   13.7217 C.ar    1  UNL1        0.0275
      5 C          63.6006   88.7263   12.6144 C.ar    1  UNL1        0.1401
      6 F          63.2137   89.6506   11.4983 F       1  UNL1       -0.2042
      7 C          63.1023   87.3115   12.6234 C.ar    1  UNL1        0.0297
      8 C          64.9840   90.6315   13.7128 C.ar    1  UNL1        0.0024
      9 C          65.4981   91.2535   14.9771 C.ar    1  UNL1        0.0032
     10 C          65.9963   92.6684   14.9683 C.ar    1  UNL1        0.0366
     11 C          65.9805   93.4611   13.6949 C.ar    1  UNL1        0.1337
     12 O          66.4787   94.8759   13.6860 O.3     1  UNL1       -0.5055
     13 C          65.4664   92.8390   12.4305 C.ar    1  UNL1        0.0366
     14 C          64.9681   91.4242   12.4394 C.ar    1  UNL1        0.0032
     15 H          66.7999   95.2645   14.4758 H       1  UNL1        0.2922
     16 C          61.9944   82.1427   13.7663 C.ar    1  UNL1       -0.0157
     17 C          62.0753   82.9175   15.0482 C.ar    1  UNL1       -0.0038
     18 C          62.5736   84.3322   15.0392 C.ar    1  UNL1        0.0019
     19 C          62.9909   84.9723   13.7484 C.ar    1  UNL1        0.0275
     20 C          62.9100   84.1975   12.4666 C.ar    1  UNL1        0.1398
     21 F          63.3273   84.8376   11.1758 F       1  UNL1       -0.2042
     22 C          62.4117   82.7828   12.4755 C.ar    1  UNL1        0.0257
     23 C          61.4961   80.7279   13.7752 C.3     1  UNL1        0.0509
     24 C          60.5686   79.5612   13.9439 C.3     1  UNL1        0.0100
     25 C          60.0870   80.9509   14.2386 C.3     1  UNL1        0.0100
     26 O          63.9567   79.9994   14.1811 O.co2   1  UNL1       -0.5489
     27 C          62.7322   80.0136   13.3150 C.2     1  UNL1        0.0534
     28 O          62.7437   79.3135   11.9884 O.co2   1  UNL1       -0.5489
@<TRIPOS>UNITY_ATOM_ATTR
26 1
charge -1
@<TRIPOS>BOND
     1    26    27   ar
     2    27    28   ar
     3    27    23    1
     4    23    16    1
     5    16    17   ar
     6    17    18   ar
     7    18    19   ar
     8    19     1    1
     9     1     2   ar
    10     2     3   ar
    11     3     4   ar
    12     4     8    1
    13     8     9   ar
    14     9    10   ar
    15    10    11   ar
    16    11    12    1
    17    11    13   ar
    18    13    14   ar
    19     4     5   ar
    20     5     6    1
    21     5     7   ar
    22    19    20   ar
    23    20    21    1
    24    20    22   ar
    25    23    24    1
    26    24    25    1
    27    25    23    1
    28    22    16   ar
    29     7     1   ar
    30    14     8   ar
    31    12    15    1
@<TRIPOS>MOLECULE
*****
 28 31 0 0 0
SMALL
GASTEIGER

@<TRIPOS>ATOM
      1 C          63.6056   85.4031   13.2204 C.ar    1  UNL1        0.0044
      2 C          62.8331   85.1646   11.9569 C.ar    1  UNL1        0.0002
      3 C          62.6387   83.7665   11.4492 C.ar    1  UNL1        0.0022
      4 C          63.2169   82.6070   12.2050 C.ar    1  UNL1        0.0275
      5 C          63.9894   82.8455   13.4685 C.ar    1  UNL1        0.1401
      6 F          64.5675   81.6860   14.2243 F       1  UNL1       -0.2042
      7 C          64.1838   84.2435   13.9762 C.ar    1  UNL1        0.0297
      8 C          63.0225   81.2090   11.6974 C.ar    1  UNL1        0.0024
      9 C          62.6438   80.1119   12.6476 C.ar    1  UNL1        0.0032
     10 C          62.4494   78.7138   12.1400 C.ar    1  UNL1        0.0366
     11 C          62.6338   78.4129   10.6821 C.ar    1  UNL1        0.1337
     12 O          62.4394   77.0149   10.1744 O.3     1  UNL1       -0.5055
     13 C          63.0125   79.5100    9.7318 C.ar    1  UNL1        0.0366
     14 C          63.2069   80.9080   10.2395 C.ar    1  UNL1        0.0032
     15 H          62.2029   76.3296   10.7680 H       1  UNL1        0.2922
     16 C          64.1888   89.5972   14.7433 C.ar    1  UNL1       -0.0157
     17 C          63.7611   89.3673   13.3241 C.ar    1  UNL1       -0.0038
     18 C          63.5667   87.9693   12.8165 C.ar    1  UNL1        0.0019
     19 C          63.8000   86.8012   13.7281 C.ar    1  UNL1        0.0275
     20 C          64.2277   87.0310   15.1473 C.ar    1  UNL1        0.1398
     21 F          64.4610   85.8628   16.0588 F       1  UNL1       -0.2042
     22 C          64.4221   88.4290   15.6549 C.ar    1  UNL1        0.0257
     23 C          64.3831   90.9952   15.2511 C.3     1  UNL1        0.0509
     24 C          64.2595   92.2068   16.1267 C.3     1  UNL1        0.0100
     25 C          63.5347   90.9439   16.4871 C.3     1  UNL1        0.0100
     26 O          64.7458   92.3655   13.0737 O.co2   1  UNL1       -0.5489
     27 C          65.2990   91.5321   14.1914 C.2     1  UNL1        0.0534
     28 O          66.7683   91.2354   14.2494 O.co2   1  UNL1       -0.5489
@<TRIPOS>UNITY_ATOM_ATTR
26 1
charge -1
@<TRIPOS>BOND
     1    26    27   ar
     2    27    28   ar
     3    27    23    1
     4    23    16    1
     5    16    17   ar
     6    17    18   ar
     7    18    19   ar
     8    19     1    1
     9     1     2   ar
    10     2     3   ar
    11     3     4   ar
    12     4     8    1
    13     8     9   ar
    14     9    10   ar
    15    10    11   ar
    16    11    12    1
    17    11    13   ar
    18    13    14   ar
    19     4     5   ar
    20     5     6    1
    21     5     7   ar
    22    19    20   ar
    23    20    21    1
    24    20    22   ar
    25    23    24    1
    26    24    25    1
    27    25    23    1
    28    22    16   ar
    29     7     1   ar
    30    14     8   ar
    31    12    15    1
@<TRIPOS>MOLECULE
*****
 28 31 0 0 0
SMALL
GASTEIGER

@<TRIPOS>ATOM
      1 C          63.5946   85.4367   13.1955 C.ar    1  UNL1        0.0044
      2 C          62.8162   85.1912   11.9370 C.ar    1  UNL1        0.0002
      3 C          62.6186   83.7902   11.4386 C.ar    1  UNL1        0.0022
      4 C          63.1994   82.6349   12.1988 C.ar    1  UNL1        0.0275
      5 C          63.9778   82.8805   13.4573 C.ar    1  UNL1        0.1401
      6 F          64.5585   81.7251   14.2175 F       1  UNL1       -0.2042
      7 C          64.1753   84.2814   13.9557 C.ar    1  UNL1        0.0297
      8 C          63.0018   81.2340   11.7005 C.ar    1  UNL1        0.0024
      9 C          62.6334   80.1416   12.6601 C.ar    1  UNL1        0.0032
     10 C          62.4358   78.7406   12.1618 C.ar    1  UNL1        0.0366
     11 C          62.6066   78.4321   10.7038 C.ar    1  UNL1        0.1337
     12 O          62.4091   77.0312   10.2055 O.3     1  UNL1       -0.5055
     13 C          62.9751   79.5245    9.7442 C.ar    1  UNL1        0.0366
     14 C          63.1727   80.9254   10.2425 C.ar    1  UNL1        0.0032
     15 H          62.1789   76.3488   10.8049 H       1  UNL1        0.2922
     16 C          64.1874   89.6395   14.6907 C.ar    1  UNL1       -0.0157
     17 C          64.4954   88.4750   15.5846 C.ar    1  UNL1       -0.0038
     18 C          64.2978   87.0741   15.0862 C.ar    1  UNL1        0.0019
     19 C          63.7922   86.8377   13.6939 C.ar    1  UNL1        0.0275
     20 C          63.4842   88.0022   12.8000 C.ar    1  UNL1        0.1398
     21 F          62.9785   87.7658   11.4078 F       1  UNL1       -0.2042
     22 C          63.6818   89.4031   13.2985 C.ar    1  UNL1        0.0257
     23 C          64.3850   91.0404   15.1891 C.3     1  UNL1        0.0509
     24 C          64.2648   92.2578   16.0572 C.3     1  UNL1        0.0100
     25 C          63.5384   90.9985   16.4267 C.3     1  UNL1        0.0100
     26 O          64.7463   92.3931   13.0005 O.co2   1  UNL1       -0.5489
     27 C          65.3002   91.5688   14.1246 C.2     1  UNL1        0.0534
     28 O          66.7696   91.2728   14.1842 O.co2   1  UNL1       -0.5489
@<TRIPOS>UNITY_ATOM_ATTR
26 1
charge -1
@<TRIPOS>BOND
     1    26    27   ar
     2    27    28   ar
     3    27    23    1
     4    23    16    1
     5    16    17   ar
     6    17    18   ar
     7    18    19   ar
     8    19     1    1
     9     1     2   ar
    10     2     3   ar
    11     3     4   ar
    12     4     8    1
    13     8     9   ar
    14     9    10   ar
    15    10    11   ar
    16    11    12    1
    17    11    13   ar
    18    13    14   ar
    19     4     5   ar
    20     5     6    1
    21     5     7   ar
    22    19    20   ar
    23    20    21    1
    24    20    22   ar
    25    23    24    1
    26    24    25    1
    27    25    23    1
    28    22    16   ar
    29     7     1   ar
    30    14     8   ar
    31    12    15    1
@<TRIPOS>MOLECULE
*****
 28 31 0 0 0
SMALL
GASTEIGER

@<TRIPOS>ATOM
      1 C          61.3335   86.4902    9.5079 C.ar    1  UNL1        0.0044
      2 C          60.7457   86.0121    8.2134 C.ar    1  UNL1        0.0002
      3 C          60.0986   86.9894    7.2772 C.ar    1  UNL1        0.0022
      4 C          60.0393   88.4447    7.6357 C.ar    1  UNL1        0.0275
      5 C          60.6271   88.9228    8.9303 C.ar    1  UNL1        0.1401
      6 F          60.5679   90.3781    9.2887 F       1  UNL1       -0.2042
      7 C          61.2742   87.9456    9.8664 C.ar    1  UNL1        0.0297
      8 C          59.3923   89.4219    6.6996 C.ar    1  UNL1        0.0024
      9 C          57.8972   89.4841    6.5963 C.ar    1  UNL1        0.0032
     10 C          57.2500   90.4614    5.6601 C.ar    1  UNL1        0.0366
     11 C          58.0981   91.3764    4.8274 C.ar    1  UNL1        0.1337
     12 O          57.4511   92.3536    3.8913 O.3     1  UNL1       -0.5055
     13 C          59.5933   91.3142    4.9307 C.ar    1  UNL1        0.0366
     14 C          60.2404   90.3370    5.8668 C.ar    1  UNL1        0.0032
     15 H          56.5171   92.3925    3.8267 H       1  UNL1        0.2922
     16 C          63.2746   83.5587   12.3164 C.ar    1  UNL1       -0.0157
     17 C          62.3315   84.5960   12.8495 C.ar    1  UNL1       -0.0038
     18 C          61.6844   85.5732   11.9133 C.ar    1  UNL1        0.0019
     19 C          61.9806   85.5130   10.4441 C.ar    1  UNL1        0.0275
     20 C          62.9237   84.4756    9.9110 C.ar    1  UNL1        0.1398
     21 F          63.2199   84.4154    8.4418 F       1  UNL1       -0.2042
     22 C          63.5708   83.4984   10.8472 C.ar    1  UNL1        0.0257
     23 C          63.9217   82.5814   13.2526 C.3     1  UNL1        0.0509
     24 C          64.4415   81.2843   13.7979 C.3     1  UNL1        0.0100
     25 C          63.7799   81.3208   12.4521 C.3     1  UNL1        0.0100
     26 O          65.3909   84.5038   14.1993 O.co2   1  UNL1       -0.5489
     27 C          64.2883   83.5027   14.3781 C.2     1  UNL1        0.0534
     28 O          63.5521   83.4228   15.6827 O.co2   1  UNL1       -0.5489
@<TRIPOS>UNITY_ATOM_ATTR
26 1
charge -1
@<TRIPOS>BOND
     1    26    27   ar
     2    27    28   ar
     3    27    23    1
     4    23    16    1
     5    16    17   ar
     6    17    18   ar
     7    18    19   ar
     8    19     1    1
     9     1     2   ar
    10     2     3   ar
    11     3     4   ar
    12     4     8    1
    13     8     9   ar
    14     9    10   ar
    15    10    11   ar
    16    11    12    1
    17    11    13   ar
    18    13    14   ar
    19     4     5   ar
    20     5     6    1
    21     5     7   ar
    22    19    20   ar
    23    20    21    1
    24    20    22   ar
    25    23    24    1
    26    24    25    1
    27    25    23    1
    28    22    16   ar
    29     7     1   ar
    30    14     8   ar
    31    12    15    1
@<TRIPOS>MOLECULE
*****
 28 31 0 0 0
SMALL
GASTEIGER

@<TRIPOS>ATOM
      1 C          63.5332   84.9775   12.8583 C.ar    1  UNL1        0.0044
      2 C          64.0686   84.5064   11.5388 C.ar    1  UNL1        0.0002
      3 C          63.8786   83.0789   11.1188 C.ar    1  UNL1        0.0022
      4 C          63.1532   82.1226   12.0184 C.ar    1  UNL1        0.0275
      5 C          62.6178   82.5938   13.3381 C.ar    1  UNL1        0.1401
      6 F          61.8924   81.6376   14.2377 F       1  UNL1       -0.2042
      7 C          62.8078   84.0212   13.7580 C.ar    1  UNL1        0.0297
      8 C          62.9633   80.6952   11.5985 C.ar    1  UNL1        0.0024
      9 C          63.0681   80.3193   10.1502 C.ar    1  UNL1        0.0032
     10 C          62.8781   78.8918    9.7302 C.ar    1  UNL1        0.0366
     11 C          62.5833   77.8404   10.7586 C.ar    1  UNL1        0.1337
     12 O          62.3933   76.4130   10.3386 O.3     1  UNL1       -0.5055
     13 C          62.4784   78.2164   12.2069 C.ar    1  UNL1        0.0366
     14 C          62.6684   79.6438   12.6269 C.ar    1  UNL1        0.0032
     15 H          62.4587   76.1781    9.4339 H       1  UNL1        0.2922
     16 C          64.1031   89.2598   14.1182 C.ar    1  UNL1       -0.0157
     17 C          63.4139   88.9442   12.8238 C.ar    1  UNL1       -0.0038
     18 C          63.2239   87.5168   12.4039 C.ar    1  UNL1        0.0019
     19 C          63.7232   86.4050   13.2783 C.ar    1  UNL1        0.0275
     20 C          64.4124   86.7206   14.5726 C.ar    1  UNL1        0.1398
     21 F          64.9117   85.6087   15.4470 F       1  UNL1       -0.2042
     22 C          64.6024   88.1480   14.9926 C.ar    1  UNL1        0.0257
     23 C          64.2931   90.6873   14.5382 C.3     1  UNL1        0.0509
     24 C          64.8004   92.0988   14.5454 C.3     1  UNL1        0.0100
     25 C          65.2730   91.1374   13.4955 C.3     1  UNL1        0.0100
     26 O          63.5094   91.8392   16.7311 O.co2   1  UNL1       -0.5489
     27 C          63.3791   90.7328   15.7267 C.2     1  UNL1        0.0534
     28 O          62.3348   89.6719   15.9107 O.co2   1  UNL1       -0.5489
@<TRIPOS>UNITY_ATOM_ATTR
26 1
charge -1
@<TRIPOS>BOND
     1    26    27   ar
     2    27    28   ar
     3    27    23    1
     4    23    16    1
     5    16    17   ar
     6    17    18   ar
     7    18    19   ar
     8    19     1    1
     9     1     2   ar
    10     2     3   ar
    11     3     4   ar
    12     4     8    1
    13     8     9   ar
    14     9    10   ar
    15    10    11   ar
    16    11    12    1
    17    11    13   ar
    18    13    14   ar
    19     4     5   ar
    20     5     6    1
    21     5     7   ar
    22    19    20   ar
    23    20    21    1
    24    20    22   ar
    25    23    24    1
    26    24    25    1
    27    25    23    1
    28    22    16   ar
    29     7     1   ar
    30    14     8   ar
    31    12    15    1
@<TRIPOS>MOLECULE
*****
 28 31 0 0 0
SMALL
GASTEIGER

@<TRIPOS>ATOM
      1 C          61.4404   87.0762    9.9088 C.ar    1  UNL1        0.0044
      2 C          61.6519   88.5611    9.9276 C.ar    1  UNL1        0.0002
      3 C          61.0102   89.4234    8.8812 C.ar    1  UNL1        0.0022
      4 C          60.1571   88.8007    7.8161 C.ar    1  UNL1        0.0275
      5 C          59.9456   87.3158    7.7974 C.ar    1  UNL1        0.1401
      6 F          59.0925   86.6932    6.7322 F       1  UNL1       -0.2042
      7 C          60.5872   86.4536    8.8437 C.ar    1  UNL1        0.0297
      8 C          59.5154   89.6630    6.7698 C.ar    1  UNL1        0.0024
      9 C          60.3670   90.5022    5.8641 C.ar    1  UNL1        0.0032
     10 C          59.7254   91.3645    4.8177 C.ar    1  UNL1        0.0366
     11 C          58.2321   91.3875    4.6771 C.ar    1  UNL1        0.1337
     12 O          57.5905   92.2497    3.6308 O.3     1  UNL1       -0.5055
     13 C          57.3806   90.5482    5.5829 C.ar    1  UNL1        0.0366
     14 C          58.0222   89.6859    6.6293 C.ar    1  UNL1        0.0032
     15 H          58.1224   92.7740    3.0650 H       1  UNL1        0.2922
     16 C          63.3653   84.4893   13.0476 C.ar    1  UNL1       -0.0157
     17 C          62.6565   83.8575   11.8864 C.ar    1  UNL1       -0.0038
     18 C          62.0149   84.7198   10.8402 C.ar    1  UNL1        0.0019
     19 C          62.0821   86.2139   10.9551 C.ar    1  UNL1        0.0275
     20 C          62.7908   86.8457   12.1163 C.ar    1  UNL1        0.1398
     21 F          62.8580   88.3397   12.2313 F       1  UNL1       -0.2042
     22 C          63.4325   85.9834   13.1626 C.ar    1  UNL1        0.0257
     23 C          64.0069   83.6270   14.0940 C.3     1  UNL1        0.0509
     24 C          64.9311   83.1988   15.1951 C.3     1  UNL1        0.0100
     25 C          65.0435   84.5777   14.6153 C.3     1  UNL1        0.0100
     26 O          61.8088   82.3056   14.5090 O.co2   1  UNL1       -0.5489
     27 C          63.1932   82.3768   13.9360 C.2     1  UNL1        0.0534
     28 O          63.7639   81.1979   13.2050 O.co2   1  UNL1       -0.5489
@<TRIPOS>UNITY_ATOM_ATTR
26 1
charge -1
@<TRIPOS>BOND
     1    26    27   ar
     2    27    28   ar
     3    27    23    1
     4    23    16    1
     5    16    17   ar
     6    17    18   ar
     7    18    19   ar
     8    19     1    1
     9     1     2   ar
    10     2     3   ar
    11     3     4   ar
    12     4     8    1
    13     8     9   ar
    14     9    10   ar
    15    10    11   ar
    16    11    12    1
    17    11    13   ar
    18    13    14   ar
    19     4     5   ar
    20     5     6    1
    21     5     7   ar
    22    19    20   ar
    23    20    21    1
    24    20    22   ar
    25    23    24    1
    26    24    25    1
    27    25    23    1
    28    22    16   ar
    29     7     1   ar
    30    14     8   ar
    31    12    15    1
