@<TRIPOS>MOLECULE
*****
 30 33 0 0 0
SMALL
GASTEIGER

@<TRIPOS>ATOM
      1 C          64.3429   89.8993   13.9768 C.ar    1  UNL1        0.0340
      2 C          65.4867   90.8083   14.3165 C.ar    1  UNL1        0.0028
      3 C          65.8271   91.9556   13.4121 C.ar    1  UNL1       -0.0022
      4 C          65.0237   92.1938   12.1681 C.ar    1  UNL1        0.0034
      5 C          63.8799   91.2848   11.8284 C.ar    1  UNL1        0.0345
      6 C          63.5395   90.1376   12.7328 C.ar    1  UNL1        0.1382
      7 C          64.4116   87.3575   14.5101 C.2     1  UNL1        0.0152
      8 C          64.0025   88.7521   14.8813 C.2     1  UNL1        0.0042
      9 O          64.7040   84.8683   15.1944 O.co2   1  UNL1       -0.5446
     10 C          64.0712   86.2103   15.4146 C.2     1  UNL1        0.0729
     11 O          63.0978   86.4051   16.5392 O.co2   1  UNL1       -0.5446
     12 C          65.3641   93.3411   11.2636 C.3     1  UNL1        0.1344
     13 N          66.6663   93.3484   10.5192 N.ar    1  UNL1       -0.3036
     14 C          67.5340   92.1552   10.2488 C.ar    1  UNL1        0.0983
     15 C          68.7334   92.6196    9.4769 C.ar    1  UNL1        0.1193
     16 N          68.6069   94.0999    9.2702 N.ar    1  UNL1       -0.2223
     17 C          67.3294   94.5503    9.9143 C.ar    1  UNL1        0.1789
     18 O          62.3957   89.2286   12.3931 O.3     1  UNL1       -0.4751
     19 C          61.6869   89.3738   11.0792 C.3     1  UNL1        0.2101
     20 C          61.0237   88.1850   10.4492 C.3     1  UNL1        0.0736
     21 C          61.7671   86.8876   10.3293 C.ar    1  UNL1       -0.0184
     22 C          62.3543   86.4788    9.0110 C.ar    1  UNL1       -0.0041
     23 C          63.0976   85.1815    8.8910 C.ar    1  UNL1       -0.0003
     24 C          63.2538   84.2929   10.0894 C.ar    1  UNL1       -0.0000
     25 C          63.9971   82.9956    9.9695 C.ar    1  UNL1       -0.0000
     26 C          64.1532   82.1071   11.1679 C.ar    1  UNL1       -0.0000
     27 C          63.5660   82.5160   12.4862 C.ar    1  UNL1       -0.0000
     28 C          62.8227   83.8133   12.6062 C.ar    1  UNL1       -0.0000
     29 C          62.6666   84.7017   11.4078 C.ar    1  UNL1       -0.0003
     30 C          61.9232   85.9991   11.5277 C.ar    1  UNL1       -0.0041
@<TRIPOS>UNITY_ATOM_ATTR
9 1
charge -1
@<TRIPOS>BOND
     1     9    10   ar
     2    10    11   ar
     3    10     7    1
     4     7     8    2
     5     8     1    1
     6     1     2   ar
     7     2     3   ar
     8     3     4   ar
     9     4    12    1
    10    12    13    1
    11    13    14   ar
    12    14    15   ar
    13    15    16   ar
    14    16    17   ar
    15     4     5   ar
    16     5     6   ar
    17     6    18    1
    18    18    19    1
    19    19    20    1
    20    20    21    1
    21    21    22   ar
    22    22    23   ar
    23    23    24   ar
    24    24    25   ar
    25    25    26   ar
    26    26    27   ar
    27    27    28   ar
    28    28    29   ar
    29    29    30   ar
    30     6     1   ar
    31    30    21   ar
    32    17    13   ar
    33    29    24   ar
@<TRIPOS>MOLECULE
*****
 30 33 0 0 0
SMALL
GASTEIGER

@<TRIPOS>ATOM
      1 C          63.1293   89.5495   11.8325 C.ar    1  UNL1        0.0340
      2 C          63.3921   90.5255   10.7241 C.ar    1  UNL1        0.0028
      3 C          64.2630   91.7219   10.9691 C.ar    1  UNL1       -0.0022
      4 C          64.8710   91.9424   12.3225 C.ar    1  UNL1        0.0034
      5 C          64.6082   90.9665   13.4308 C.ar    1  UNL1        0.0345
      6 C          63.7373   89.7700   13.1859 C.ar    1  UNL1        0.1382
      7 C          61.9989   87.8889   10.1849 C.2     1  UNL1        0.0152
      8 C          62.2584   88.3530   11.5874 C.2     1  UNL1        0.0042
      9 O          61.3484   85.4316   10.7220 O.co2   1  UNL1       -0.5446
     10 C          61.1280   86.6925    9.9399 C.2     1  UNL1        0.0729
     11 O          60.0367   86.7568    8.9128 O.co2   1  UNL1       -0.5446
     12 C          65.7419   93.1390   12.5675 C.3     1  UNL1        0.1344
     13 N          66.4533   93.7960   11.4221 N.ar    1  UNL1       -0.3036
     14 C          66.3067   95.2272   10.9975 C.ar    1  UNL1        0.0983
     15 C          67.1989   95.4530    9.8131 C.ar    1  UNL1        0.1193
     16 N          67.8970   94.1614    9.5056 N.ar    1  UNL1       -0.2223
     17 C          67.4361   93.1373   10.5000 C.ar    1  UNL1        0.1789
     18 O          63.4745   88.7941   14.2942 O.3     1  UNL1       -0.4751
     19 C          64.4292   87.6636   14.5402 C.3     1  UNL1        0.2101
     20 C          63.9975   86.4814   15.3563 C.3     1  UNL1        0.0736
     21 C          63.6289   85.1957   14.6772 C.ar    1  UNL1       -0.0184
     22 C          62.8019   84.1752   15.4016 C.ar    1  UNL1       -0.0041
     23 C          62.4333   82.8895   14.7226 C.ar    1  UNL1       -0.0003
     24 C          62.8917   82.6242   13.3191 C.ar    1  UNL1       -0.0000
     25 C          62.5232   81.3385   12.6401 C.ar    1  UNL1       -0.0000
     26 C          62.9816   81.0733   11.2368 C.ar    1  UNL1       -0.0000
     27 C          63.8086   82.0937   10.5124 C.ar    1  UNL1       -0.0000
     28 C          64.1772   83.3794   11.1914 C.ar    1  UNL1       -0.0000
     29 C          63.7187   83.6447   12.5948 C.ar    1  UNL1       -0.0003
     30 C          64.0873   84.9304   13.2738 C.ar    1  UNL1       -0.0041
@<TRIPOS>UNITY_ATOM_ATTR
9 1
charge -1
@<TRIPOS>BOND
     1     9    10   ar
     2    10    11   ar
     3    10     7    1
     4     7     8    2
     5     8     1    1
     6     1     2   ar
     7     2     3   ar
     8     3     4   ar
     9     4    12    1
    10    12    13    1
    11    13    14   ar
    12    14    15   ar
    13    15    16   ar
    14    16    17   ar
    15     4     5   ar
    16     5     6   ar
    17     6    18    1
    18    18    19    1
    19    19    20    1
    20    20    21    1
    21    21    22   ar
    22    22    23   ar
    23    23    24   ar
    24    24    25   ar
    25    25    26   ar
    26    26    27   ar
    27    27    28   ar
    28    28    29   ar
    29    29    30   ar
    30     6     1   ar
    31    30    21   ar
    32    17    13   ar
    33    29    24   ar
@<TRIPOS>MOLECULE
*****
 30 33 0 0 0
SMALL
GASTEIGER

@<TRIPOS>ATOM
      1 C          64.2511   91.1429   13.0831 C.ar    1  UNL1        0.0340
      2 C          64.4323   91.5690   11.6563 C.ar    1  UNL1        0.0028
      3 C          63.4440   91.1380   10.6136 C.ar    1  UNL1       -0.0022
      4 C          62.2744   90.2809   10.9976 C.ar    1  UNL1        0.0034
      5 C          62.0932   89.8549   12.4243 C.ar    1  UNL1        0.0345
      6 C          63.0815   90.2859   13.4671 C.ar    1  UNL1        0.1382
      7 C          66.5797   92.1071   13.7140 C.2     1  UNL1        0.0152
      8 C          65.2395   91.5740   14.1258 C.2     1  UNL1        0.0042
      9 O          69.0234   92.6482   14.4107 O.co2   1  UNL1       -0.5446
     10 C          67.5680   92.5382   14.7568 C.2     1  UNL1        0.0729
     11 O          67.1010   92.8591   16.1456 O.co2   1  UNL1       -0.5446
     12 C          61.2860   89.8498    9.9548 C.3     1  UNL1        0.1344
     13 N          61.1843   88.4036    9.5701 N.ar    1  UNL1       -0.3036
     14 C          60.0597   87.7719    8.8046 C.ar    1  UNL1        0.0983
     15 C          60.3697   86.3130    8.6448 C.ar    1  UNL1        0.1193
     16 N          61.6860   86.0431    9.3116 N.ar    1  UNL1       -0.2223
     17 C          62.1894   87.3351    9.8835 C.ar    1  UNL1        0.1789
     18 O          62.9003   89.8598   14.8938 O.3     1  UNL1       -0.4751
     19 C          63.7851   88.7987   15.4778 C.3     1  UNL1        0.2101
     20 C          64.4158   87.7725   14.5839 C.3     1  UNL1        0.0736
     21 C          63.8753   86.3736   14.5499 C.ar    1  UNL1       -0.0184
     22 C          63.4775   85.6921   15.8256 C.ar    1  UNL1       -0.0041
     23 C          62.9370   84.2933   15.7916 C.ar    1  UNL1       -0.0003
     24 C          62.7943   83.5759   14.4820 C.ar    1  UNL1       -0.0000
     25 C          62.2538   82.1771   14.4480 C.ar    1  UNL1       -0.0000
     26 C          62.1111   81.4599   13.1384 C.ar    1  UNL1       -0.0000
     27 C          62.5089   82.1414   11.8628 C.ar    1  UNL1       -0.0000
     28 C          63.0494   83.5402   11.8967 C.ar    1  UNL1       -0.0000
     29 C          63.1921   84.2574   13.2063 C.ar    1  UNL1       -0.0003
     30 C          63.7326   85.6563   13.2403 C.ar    1  UNL1       -0.0041
@<TRIPOS>UNITY_ATOM_ATTR
9 1
charge -1
@<TRIPOS>BOND
     1     9    10   ar
     2    10    11   ar
     3    10     7    1
     4     7     8    2
     5     8     1    1
     6     1     2   ar
     7     2     3   ar
     8     3     4   ar
     9     4    12    1
    10    12    13    1
    11    13    14   ar
    12    14    15   ar
    13    15    16   ar
    14    16    17   ar
    15     4     5   ar
    16     5     6   ar
    17     6    18    1
    18    18    19    1
    19    19    20    1
    20    20    21    1
    21    21    22   ar
    22    22    23   ar
    23    23    24   ar
    24    24    25   ar
    25    25    26   ar
    26    26    27   ar
    27    27    28   ar
    28    28    29   ar
    29    29    30   ar
    30     6     1   ar
    31    30    21   ar
    32    17    13   ar
    33    29    24   ar
@<TRIPOS>MOLECULE
*****
 30 33 0 0 0
SMALL
GASTEIGER

@<TRIPOS>ATOM
      1 C          63.1003   89.6908   11.9128 C.ar    1  UNL1        0.0340
      2 C          63.4323   90.7597   10.9142 C.ar    1  UNL1        0.0028
      3 C          64.4112   91.8395   11.2690 C.ar    1  UNL1       -0.0022
      4 C          65.0580   91.8503   12.6222 C.ar    1  UNL1        0.0034
      5 C          64.7260   90.7814   13.6208 C.ar    1  UNL1        0.0345
      6 C          63.7472   89.7016   13.2661 C.ar    1  UNL1        0.1382
      7 C          62.1340   88.0090   10.1842 C.2     1  UNL1        0.0152
      8 C          62.1213   88.6110   11.5580 C.2     1  UNL1        0.0042
      9 O          61.3287   85.5472   10.3859 O.co2   1  UNL1       -0.5446
     10 C          61.1551   86.9293    9.8295 C.2     1  UNL1        0.0729
     11 O          60.0025   87.2316    8.9183 O.co2   1  UNL1       -0.5446
     12 C          66.0370   92.9301   12.9770 C.3     1  UNL1        0.1344
     13 N          66.8378   92.8305   14.2414 N.ar    1  UNL1       -0.3036
     14 C          68.3034   92.5249   14.3349 C.ar    1  UNL1        0.0983
     15 C          68.6851   92.5246   15.7856 C.ar    1  UNL1        0.1193
     16 N          67.4554   92.8300   16.5885 N.ar    1  UNL1       -0.2223
     17 C          66.3138   93.0191   15.6342 C.ar    1  UNL1        0.1789
     18 O          63.4152   88.6327   14.2646 O.3     1  UNL1       -0.4751
     19 C          64.4253   87.5737   14.5936 C.3     1  UNL1        0.2101
     20 C          64.0160   86.3664   15.3841 C.3     1  UNL1        0.0736
     21 C          63.6565   85.0934   14.6768 C.ar    1  UNL1       -0.0184
     22 C          62.8664   84.0365   15.3901 C.ar    1  UNL1       -0.0041
     23 C          62.5069   82.7635   14.6829 C.ar    1  UNL1       -0.0003
     24 C          62.9375   82.5473   13.2623 C.ar    1  UNL1       -0.0000
     25 C          62.5780   81.2743   12.5551 C.ar    1  UNL1       -0.0000
     26 C          63.0086   81.0582   11.1347 C.ar    1  UNL1       -0.0000
     27 C          63.7987   82.1151   10.4214 C.ar    1  UNL1       -0.0000
     28 C          64.1582   83.3881   11.1286 C.ar    1  UNL1       -0.0000
     29 C          63.7276   83.6042   12.5490 C.ar    1  UNL1       -0.0003
     30 C          64.0871   84.8773   13.2563 C.ar    1  UNL1       -0.0041
@<TRIPOS>UNITY_ATOM_ATTR
9 1
charge -1
@<TRIPOS>BOND
     1     9    10   ar
     2    10    11   ar
     3    10     7    1
     4     7     8    2
     5     8     1    1
     6     1     2   ar
     7     2     3   ar
     8     3     4   ar
     9     4    12    1
    10    12    13    1
    11    13    14   ar
    12    14    15   ar
    13    15    16   ar
    14    16    17   ar
    15     4     5   ar
    16     5     6   ar
    17     6    18    1
    18    18    19    1
    19    19    20    1
    20    20    21    1
    21    21    22   ar
    22    22    23   ar
    23    23    24   ar
    24    24    25   ar
    25    25    26   ar
    26    26    27   ar
    27    27    28   ar
    28    28    29   ar
    29    29    30   ar
    30     6     1   ar
    31    30    21   ar
    32    17    13   ar
    33    29    24   ar
@<TRIPOS>MOLECULE
*****
 30 33 0 0 0
SMALL
GASTEIGER

@<TRIPOS>ATOM
      1 C          64.5780   90.0247   14.2396 C.ar    1  UNL1        0.0340
      2 C          65.8169   90.8211   14.5239 C.ar    1  UNL1        0.0028
      3 C          66.1718   91.9916   13.6556 C.ar    1  UNL1       -0.0022
      4 C          65.2878   92.3657   12.5030 C.ar    1  UNL1        0.0034
      5 C          64.0489   91.5693   12.2187 C.ar    1  UNL1        0.0345
      6 C          63.6940   90.3988   13.0870 C.ar    1  UNL1        0.1382
      7 C          64.3624   87.4578   14.5782 C.2     1  UNL1        0.0152
      8 C          64.2231   88.8542   15.1080 C.2     1  UNL1        0.0042
      9 O          64.6265   84.9460   15.1870 O.co2   1  UNL1       -0.5446
     10 C          64.0075   86.2874   15.4466 C.2     1  UNL1        0.0729
     11 O          63.0337   86.4584   16.5746 O.co2   1  UNL1       -0.5446
     12 C          65.6427   93.5362   11.6346 C.3     1  UNL1        0.1344
     13 N          66.6913   93.3911   10.5720 N.ar    1  UNL1       -0.3036
     14 C          67.0694   94.4303    9.5586 C.ar    1  UNL1        0.0983
     15 C          68.1577   93.8628    8.6964 C.ar    1  UNL1        0.1193
     16 N          68.4523   92.4726    9.1769 N.ar    1  UNL1       -0.2223
     17 C          67.5460   92.1811   10.3361 C.ar    1  UNL1        0.1789
     18 O          62.4551   89.6024   12.8027 O.3     1  UNL1       -0.4751
     19 C          61.5642   89.9844   11.6580 C.3     1  UNL1        0.2101
     20 C          60.3641   89.1465   11.3296 C.3     1  UNL1        0.0736
     21 C          60.4171   88.1757   10.1872 C.ar    1  UNL1       -0.0184
     22 C          59.2216   87.9965    9.2993 C.ar    1  UNL1       -0.0041
     23 C          59.2745   87.0258    8.1570 C.ar    1  UNL1       -0.0003
     24 C          60.5231   86.2343    7.9026 C.ar    1  UNL1       -0.0000
     25 C          60.5760   85.2636    6.7603 C.ar    1  UNL1       -0.0000
     26 C          61.8245   84.4721    6.5060 C.ar    1  UNL1       -0.0000
     27 C          63.0201   84.6513    7.3940 C.ar    1  UNL1       -0.0000
     28 C          62.9671   85.6220    8.5363 C.ar    1  UNL1       -0.0000
     29 C          61.7186   86.4135    8.7906 C.ar    1  UNL1       -0.0003
     30 C          61.6656   87.3843    9.9329 C.ar    1  UNL1       -0.0041
@<TRIPOS>UNITY_ATOM_ATTR
9 1
charge -1
@<TRIPOS>BOND
     1     9    10   ar
     2    10    11   ar
     3    10     7    1
     4     7     8    2
     5     8     1    1
     6     1     2   ar
     7     2     3   ar
     8     3     4   ar
     9     4    12    1
    10    12    13    1
    11    13    14   ar
    12    14    15   ar
    13    15    16   ar
    14    16    17   ar
    15     4     5   ar
    16     5     6   ar
    17     6    18    1
    18    18    19    1
    19    19    20    1
    20    20    21    1
    21    21    22   ar
    22    22    23   ar
    23    23    24   ar
    24    24    25   ar
    25    25    26   ar
    26    26    27   ar
    27    27    28   ar
    28    28    29   ar
    29    29    30   ar
    30     6     1   ar
    31    30    21   ar
    32    17    13   ar
    33    29    24   ar
@<TRIPOS>MOLECULE
*****
 30 33 0 0 0
SMALL
GASTEIGER

@<TRIPOS>ATOM
      1 C          64.2718   89.6246   14.2204 C.ar    1  UNL1        0.0340
      2 C          65.3657   90.5188   14.7241 C.ar    1  UNL1        0.0028
      3 C          65.7722   91.7258   13.9318 C.ar    1  UNL1       -0.0022
      4 C          65.0848   92.0386   12.6358 C.ar    1  UNL1        0.0034
      5 C          63.9909   91.1444   12.1321 C.ar    1  UNL1        0.0345
      6 C          63.5844   89.9374   12.9244 C.ar    1  UNL1        0.1382
      7 C          63.3594   88.5768   16.4158 C.2     1  UNL1        0.0152
      8 C          63.8652   88.4175   15.0128 C.2     1  UNL1        0.0042
      9 O          62.7914   87.4688   18.6961 O.co2   1  UNL1       -0.5446
     10 C          62.9529   87.3698   17.2081 C.2     1  UNL1        0.0729
     11 O          62.7079   86.0636   16.5124 O.co2   1  UNL1       -0.5446
     12 C          65.4913   93.2457   11.8435 C.3     1  UNL1        0.1344
     13 N          66.6466   93.1630   10.8903 N.ar    1  UNL1       -0.3036
     14 C          66.8681   94.0418    9.6951 C.ar    1  UNL1        0.0983
     15 C          68.1415   93.6089    9.0311 C.ar    1  UNL1        0.1193
     16 N          68.7070   92.4625    9.8159 N.ar    1  UNL1       -0.2223
     17 C          67.7831   92.1869   10.9649 C.ar    1  UNL1        0.1789
     18 O          62.4905   89.0431   12.4207 O.3     1  UNL1       -0.4751
     19 C          62.5626   88.4784   11.0330 C.3     1  UNL1        0.2101
     20 C          62.0576   87.0927   10.7599 C.3     1  UNL1        0.0736
     21 C          62.5470   85.9398   11.5856 C.ar    1  UNL1       -0.0184
     22 C          63.3337   86.1943   12.8371 C.ar    1  UNL1       -0.0041
     23 C          63.8231   85.0415   13.6627 C.ar    1  UNL1       -0.0003
     24 C          63.5257   83.6343   13.2368 C.ar    1  UNL1       -0.0000
     25 C          64.0151   82.4816   14.0624 C.ar    1  UNL1       -0.0000
     26 C          63.7178   81.0744   13.6365 C.ar    1  UNL1       -0.0000
     27 C          62.9310   80.8200   12.3850 C.ar    1  UNL1       -0.0000
     28 C          62.4417   81.9727   11.5594 C.ar    1  UNL1       -0.0000
     29 C          62.7390   83.3799   11.9853 C.ar    1  UNL1       -0.0003
     30 C          62.2497   84.5327   11.1597 C.ar    1  UNL1       -0.0041
@<TRIPOS>UNITY_ATOM_ATTR
9 1
charge -1
@<TRIPOS>BOND
     1     9    10   ar
     2    10    11   ar
     3    10     7    1
     4     7     8    2
     5     8     1    1
     6     1     2   ar
     7     2     3   ar
     8     3     4   ar
     9     4    12    1
    10    12    13    1
    11    13    14   ar
    12    14    15   ar
    13    15    16   ar
    14    16    17   ar
    15     4     5   ar
    16     5     6   ar
    17     6    18    1
    18    18    19    1
    19    19    20    1
    20    20    21    1
    21    21    22   ar
    22    22    23   ar
    23    23    24   ar
    24    24    25   ar
    25    25    26   ar
    26    26    27   ar
    27    27    28   ar
    28    28    29   ar
    29    29    30   ar
    30     6     1   ar
    31    30    21   ar
    32    17    13   ar
    33    29    24   ar
@<TRIPOS>MOLECULE
*****
 30 33 0 0 0
SMALL
GASTEIGER

@<TRIPOS>ATOM
      1 C          59.9094   88.0927    7.8134 C.ar    1  UNL1        0.0340
      2 C          59.9034   86.6788    7.3126 C.ar    1  UNL1        0.0028
      3 C          60.8564   85.6746    7.8898 C.ar    1  UNL1       -0.0022
      4 C          61.8155   86.0843    8.9678 C.ar    1  UNL1        0.0034
      5 C          61.8215   87.4982    9.4687 C.ar    1  UNL1        0.0345
      6 C          60.8684   88.5024    8.8915 C.ar    1  UNL1        0.1382
      7 C          59.3680   89.9320    6.0602 C.2     1  UNL1        0.0152
      8 C          58.9562   89.0969    7.2362 C.2     1  UNL1        0.0042
      9 O          56.9380   90.6761    5.5202 O.co2   1  UNL1       -0.5446
     10 C          58.4149   90.9361    5.4830 C.2     1  UNL1        0.0729
     11 O          58.9385   92.2004    4.8685 O.co2   1  UNL1       -0.5446
     12 C          62.7686   85.0801    9.5451 C.3     1  UNL1        0.1344
     13 N          62.7147   84.7490   11.0071 N.ar    1  UNL1       -0.3036
     14 C          62.7789   83.3738   11.6026 C.ar    1  UNL1        0.0983
     15 C          62.6910   83.5098   13.0938 C.ar    1  UNL1        0.1193
     16 N          62.5724   84.9692   13.4200 N.ar    1  UNL1       -0.2223
     17 C          62.5871   85.7350   12.1303 C.ar    1  UNL1        0.1789
     18 O          60.8744   89.9163    9.3924 O.3     1  UNL1       -0.4751
     19 C          60.5053   90.2090   10.8165 C.3     1  UNL1        0.2101
     20 C          61.4380   89.8259   11.9270 C.3     1  UNL1        0.0736
     21 C          62.7628   90.5158   12.0653 C.ar    1  UNL1       -0.0184
     22 C          63.3343   91.2811   10.9087 C.ar    1  UNL1       -0.0041
     23 C          64.6590   91.9710   11.0470 C.ar    1  UNL1       -0.0003
     24 C          65.4123   91.8956   12.3420 C.ar    1  UNL1       -0.0000
     25 C          66.7371   92.5854   12.4803 C.ar    1  UNL1       -0.0000
     26 C          67.4903   92.5100   13.7752 C.ar    1  UNL1       -0.0000
     27 C          66.9189   91.7447   14.9318 C.ar    1  UNL1       -0.0000
     28 C          65.5942   91.0548   14.7935 C.ar    1  UNL1       -0.0000
     29 C          64.8409   91.1303   13.4986 C.ar    1  UNL1       -0.0003
     30 C          63.5161   90.4404   13.3602 C.ar    1  UNL1       -0.0041
@<TRIPOS>UNITY_ATOM_ATTR
9 1
charge -1
@<TRIPOS>BOND
     1     9    10   ar
     2    10    11   ar
     3    10     7    1
     4     7     8    2
     5     8     1    1
     6     1     2   ar
     7     2     3   ar
     8     3     4   ar
     9     4    12    1
    10    12    13    1
    11    13    14   ar
    12    14    15   ar
    13    15    16   ar
    14    16    17   ar
    15     4     5   ar
    16     5     6   ar
    17     6    18    1
    18    18    19    1
    19    19    20    1
    20    20    21    1
    21    21    22   ar
    22    22    23   ar
    23    23    24   ar
    24    24    25   ar
    25    25    26   ar
    26    26    27   ar
    27    27    28   ar
    28    28    29   ar
    29    29    30   ar
    30     6     1   ar
    31    30    21   ar
    32    17    13   ar
    33    29    24   ar
@<TRIPOS>MOLECULE
*****
 30 33 0 0 0
SMALL
GASTEIGER

@<TRIPOS>ATOM
      1 C          62.2748   85.8986    9.3706 C.ar    1  UNL1        0.0340
      2 C          63.1215   84.8611    8.6949 C.ar    1  UNL1        0.0028
      3 C          63.8014   83.8010    9.5097 C.ar    1  UNL1       -0.0022
      4 C          63.6345   83.7784   11.0002 C.ar    1  UNL1        0.0034
      5 C          62.7878   84.8159   11.6759 C.ar    1  UNL1        0.0345
      6 C          62.1079   85.8760   10.8611 C.ar    1  UNL1        0.1382
      7 C          60.1305   87.2243    8.7424 C.2     1  UNL1        0.0152
      8 C          61.5949   86.9588    8.5558 C.2     1  UNL1        0.0042
      9 O          60.0643   89.6480    7.8091 O.co2   1  UNL1       -0.5446
     10 C          59.4507   88.2844    7.9276 C.2     1  UNL1        0.0729
     11 O          58.1572   87.9809    7.2312 O.co2   1  UNL1       -0.5446
     12 C          64.3144   82.7183   11.8151 C.3     1  UNL1        0.1344
     13 N          63.5035   81.8117   12.6928 N.ar    1  UNL1       -0.3036
     14 C          62.8540   80.5266   12.2722 C.ar    1  UNL1        0.0983
     15 C          62.1488   79.9517   13.4647 C.ar    1  UNL1        0.1193
     16 N          62.3624   80.8814   14.6224 N.ar    1  UNL1       -0.2223
     17 C          63.1996   82.0309   14.1453 C.ar    1  UNL1        0.1789
     18 O          61.2612   86.9136   11.5368 O.3     1  UNL1       -0.4751
     19 C          61.8822   88.1913   12.0181 C.3     1  UNL1        0.2101
     20 C          62.3099   89.2360   11.0303 C.3     1  UNL1        0.0736
     21 C          63.2833   90.3013   11.4395 C.ar    1  UNL1       -0.0184
     22 C          63.7269   91.3338   10.4458 C.ar    1  UNL1       -0.0041
     23 C          64.7003   92.3991   10.8550 C.ar    1  UNL1       -0.0003
     24 C          65.2303   92.4320   12.2579 C.ar    1  UNL1       -0.0000
     25 C          66.2037   93.4974   12.6671 C.ar    1  UNL1       -0.0000
     26 C          66.7336   93.5303   14.0699 C.ar    1  UNL1       -0.0000
     27 C          66.2901   92.4978   15.0636 C.ar    1  UNL1       -0.0000
     28 C          65.3167   91.4325   14.6544 C.ar    1  UNL1       -0.0000
     29 C          64.7868   91.3996   13.2516 C.ar    1  UNL1       -0.0003
     30 C          63.8133   90.3342   12.8423 C.ar    1  UNL1       -0.0041
@<TRIPOS>UNITY_ATOM_ATTR
9 1
charge -1
@<TRIPOS>BOND
     1     9    10   ar
     2    10    11   ar
     3    10     7    1
     4     7     8    2
     5     8     1    1
     6     1     2   ar
     7     2     3   ar
     8     3     4   ar
     9     4    12    1
    10    12    13    1
    11    13    14   ar
    12    14    15   ar
    13    15    16   ar
    14    16    17   ar
    15     4     5   ar
    16     5     6   ar
    17     6    18    1
    18    18    19    1
    19    19    20    1
    20    20    21    1
    21    21    22   ar
    22    22    23   ar
    23    23    24   ar
    24    24    25   ar
    25    25    26   ar
    26    26    27   ar
    27    27    28   ar
    28    28    29   ar
    29    29    30   ar
    30     6     1   ar
    31    30    21   ar
    32    17    13   ar
    33    29    24   ar
@<TRIPOS>MOLECULE
*****
 30 33 0 0 0
SMALL
GASTEIGER

@<TRIPOS>ATOM
      1 C          63.0709   83.7674   11.1642 C.ar    1  UNL1        0.0340
      2 C          63.3560   83.9445    9.7022 C.ar    1  UNL1        0.0028
      3 C          62.9906   85.2277    9.0168 C.ar    1  UNL1       -0.0022
      4 C          62.3399   86.3338    9.7934 C.ar    1  UNL1        0.0034
      5 C          62.0547   86.1567   11.2554 C.ar    1  UNL1        0.0345
      6 C          62.4202   84.8735   11.9408 C.ar    1  UNL1        0.1382
      7 C          62.3758   81.4682   12.1544 C.2     1  UNL1        0.0152
      8 C          63.4364   82.4841   11.8496 C.2     1  UNL1        0.0042
      9 O          63.2318   80.2050   14.2572 O.co2   1  UNL1       -0.5446
     10 C          62.7413   80.1850   12.8398 C.2     1  UNL1        0.0729
     11 O          62.6164   78.8817   12.1077 O.co2   1  UNL1       -0.5446
     12 C          61.9744   87.6171    9.1080 C.3     1  UNL1        0.1344
     13 N          61.6002   88.8211    9.9205 N.ar    1  UNL1       -0.3036
     14 C          60.2063   89.2472   10.2747 C.ar    1  UNL1        0.0983
     15 C          60.2988   90.4999   11.0946 C.ar    1  UNL1        0.1193
     16 N          61.7499   90.8481   11.2471 N.ar    1  UNL1       -0.2223
     17 C          62.5542   89.8105   10.5215 C.ar    1  UNL1        0.1789
     18 O          62.1350   84.6965   13.4027 O.3     1  UNL1       -0.4751
     19 C          63.0633   83.8827   14.2548 C.3     1  UNL1        0.2101
     20 C          64.0925   84.5656   15.1060 C.3     1  UNL1        0.0736
     21 C          63.8998   85.9965   15.5127 C.ar    1  UNL1       -0.0184
     22 C          63.2330   86.3225   16.8162 C.ar    1  UNL1       -0.0041
     23 C          63.0403   87.7533   17.2229 C.ar    1  UNL1       -0.0003
     24 C          63.5144   88.8584   16.3261 C.ar    1  UNL1       -0.0000
     25 C          63.3217   90.2892   16.7328 C.ar    1  UNL1       -0.0000
     26 C          63.7958   91.3941   15.8360 C.ar    1  UNL1       -0.0000
     27 C          64.4626   91.0682   14.5325 C.ar    1  UNL1       -0.0000
     28 C          64.6553   89.6373   14.1258 C.ar    1  UNL1       -0.0000
     29 C          64.1812   88.5324   15.0226 C.ar    1  UNL1       -0.0003
     30 C          64.3739   87.1015   14.6159 C.ar    1  UNL1       -0.0041
@<TRIPOS>UNITY_ATOM_ATTR
9 1
charge -1
@<TRIPOS>BOND
     1     9    10   ar
     2    10    11   ar
     3    10     7    1
     4     7     8    2
     5     8     1    1
     6     1     2   ar
     7     2     3   ar
     8     3     4   ar
     9     4    12    1
    10    12    13    1
    11    13    14   ar
    12    14    15   ar
    13    15    16   ar
    14    16    17   ar
    15     4     5   ar
    16     5     6   ar
    17     6    18    1
    18    18    19    1
    19    19    20    1
    20    20    21    1
    21    21    22   ar
    22    22    23   ar
    23    23    24   ar
    24    24    25   ar
    25    25    26   ar
    26    26    27   ar
    27    27    28   ar
    28    28    29   ar
    29    29    30   ar
    30     6     1   ar
    31    30    21   ar
    32    17    13   ar
    33    29    24   ar
