@<TRIPOS>MOLECULE
*****
 66 73 0 0 0
SMALL
GASTEIGER

@<TRIPOS>ATOM
      1 N          63.6187   94.6775   -4.9385 N.3     1  UNL1       -0.1862
      2 C          62.8789   94.4227   -6.2181 C.3     1  UNL1        0.1775
      3 C          61.3860   94.5623   -6.2620 C.2     1  UNL1        0.2452
      4 O          60.6462   94.3074   -7.5417 O.2     1  UNL1       -0.2732
      5 N          60.6330   94.9566   -5.0261 N.am    1  UNL1       -0.2541
      6 C          59.1402   95.0962   -5.0699 C.3     1  UNL1        0.1577
      7 C          58.3872   95.4906   -3.8341 C.2     1  UNL1        0.2445
      8 O          56.8943   95.6301   -3.8779 O.2     1  UNL1       -0.2731
      9 N          59.1270   95.7454   -2.5543 N.am    1  UNL1       -0.2705
     10 C          60.6199   95.6059   -2.5105 C.3     1  UNL1        0.1359
     11 C          61.3729   95.2115   -3.7464 C.3     1  UNL1        0.1908
     12 N          62.8657   95.0719   -3.7026 N.am    1  UNL1       -0.1863
     13 C          63.6056   95.3268   -2.4228 C.2     1  UNL1        0.3191
     14 O          62.8526   95.7211   -1.1870 O.2     1  UNL1       -0.2512
     15 N          65.0984   95.1872   -2.3790 N.am    1  UNL1       -0.2836
     16 H          65.5926   94.9283   -3.1902 H       1  UNL1        0.1513
     17 C          65.1116   94.5380   -4.8946 C.3     1  UNL1        0.1188
     18 C          64.9604   92.2109   -6.0401 C.2     1  UNL1       -0.0034
     19 C          65.7564   93.2466   -5.3026 C.2     1  UNL1       -0.0071
     20 C          58.4003   94.8414   -6.3496 C.3     1  UNL1        0.0556
     21 C          57.4288   93.7021   -6.4402 C.ar    1  UNL1       -0.0198
     22 C          56.2965   93.7582   -7.4224 C.ar    1  UNL1       -0.0011
     23 C          55.3250   92.6189   -7.5129 C.ar    1  UNL1        0.0363
     24 C          55.4858   91.4235   -6.6214 C.ar    1  UNL1        0.1337
     25 O          54.5144   90.2842   -6.7120 O.3     1  UNL1       -0.5055
     26 C          56.6182   91.3673   -5.6391 C.ar    1  UNL1        0.0363
     27 C          57.5897   92.5066   -5.5485 C.ar    1  UNL1       -0.0011
     28 H          53.8070   90.3193   -7.3255 H       1  UNL1        0.2922
     29 C          58.3740   96.1398   -1.3184 C.3     1  UNL1        0.1217
     30 C          58.9362   95.8226    0.0356 C.ar    1  UNL1        0.0135
     31 C          59.7358   96.8533    0.7760 C.ar    1  UNL1       -0.0012
     32 C          60.2980   96.5362    2.1300 C.ar    1  UNL1       -0.0002
     33 C          60.0604   95.1883    2.7436 C.ar    1  UNL1        0.0015
     34 C          59.2608   94.1575    2.0033 C.ar    1  UNL1        0.0170
     35 C          58.8650   92.7534    2.3522 C.ar    1  UNL1        0.0186
     36 C          58.0582   92.2028    1.2138 C.ar    1  UNL1        0.0759
     37 N          57.9554   93.2666    0.1614 N.ar    1  UNL1       -0.3242
     38 C          57.2357   93.1439   -1.1489 C.3     1  UNL1        0.1305
     39 C          58.6986   94.4747    0.6493 C.ar    1  UNL1        0.0575
     40 C          59.2146   92.0273    3.6174 C.ar    1  UNL1        0.0016
     41 C          58.1299   91.6012    4.5619 C.ar    1  UNL1        0.0013
     42 C          58.4795   90.8752    5.8270 C.ar    1  UNL1        0.0147
     43 C          59.9138   90.5753    6.1477 C.ar    1  UNL1        0.0516
     44 C          60.9985   91.0013    5.2033 C.ar    1  UNL1        0.0147
     45 C          60.6488   91.7273    3.9382 C.ar    1  UNL1        0.0013
     46 N          60.2634   89.8492    7.4129 N.am    1  UNL1       -0.2683
     47 C          60.2362   88.3499    7.4493 C.2     1  UNL1        0.3045
     48 O          59.8595   87.5766    6.2205 O.2     1  UNL1       -0.2525
     49 N          60.5858   87.6239    8.7145 N.am    1  UNL1       -0.2884
     50 H          60.5106   90.3568    8.2194 H       1  UNL1        0.1564
     51 H          60.8331   88.1315    9.5210 H       1  UNL1        0.1510
     52 C          60.5586   86.1246    8.7508 C.3     1  UNL1        0.0956
     53 C          61.8433   85.3505    8.7316 C.3     1  UNL1        0.0476
     54 C          62.4805   84.9224   10.0203 C.ar    1  UNL1       -0.0205
     55 C          63.4526   83.7802   10.0331 C.ar    1  UNL1       -0.0042
     56 C          64.0899   83.3521   11.3218 C.ar    1  UNL1       -0.0003
     57 C          63.7549   84.0662   12.5976 C.ar    1  UNL1       -0.0000
     58 C          62.7827   85.2084   12.5848 C.ar    1  UNL1       -0.0003
     59 C          62.1455   85.6366   11.2961 C.ar    1  UNL1       -0.0042
     60 C          65.8383   95.4420   -1.0993 C.3     1  UNL1        0.1177
     61 C          65.2627   94.9764    0.2053 C.ar    1  UNL1       -0.0025
     62 C          65.0944   95.9443    1.3388 C.ar    1  UNL1       -0.0026
     63 C          64.5189   95.4787    2.6434 C.ar    1  UNL1       -0.0003
     64 C          64.1116   94.0453    2.8145 C.ar    1  UNL1       -0.0000
     65 C          64.2799   93.0773    1.6809 C.ar    1  UNL1       -0.0003
     66 C          64.8554   93.5429    0.3763 C.ar    1  UNL1       -0.0026
@<TRIPOS>BOND
     1    18    19    2
     2    19    17    1
     3    17     1    1
     4     1     2    1
     5     2     3    1
     6     3     4    2
     7     3     5   am
     8     5     6    1
     9     6    20    1
    10    20    21    1
    11    21    22   ar
    12    22    23   ar
    13    23    24   ar
    14    24    25    1
    15    24    26   ar
    16    26    27   ar
    17     6     7    1
    18     7     8    2
    19     7     9   am
    20     9    29    1
    21    29    30    1
    22    30    31   ar
    23    31    32   ar
    24    32    33   ar
    25    33    34   ar
    26    34    35   ar
    27    35    40    1
    28    40    41   ar
    29    41    42   ar
    30    42    43   ar
    31    43    46    1
    32    46    47   am
    33    47    48    2
    34    47    49   am
    35    49    52    1
    36    52    53    1
    37    53    54    1
    38    54    55   ar
    39    55    56   ar
    40    56    57   ar
    41    57    58   ar
    42    58    59   ar
    43    43    44   ar
    44    44    45   ar
    45    35    36   ar
    46    36    37   ar
    47    37    38    1
    48    37    39   ar
    49     9    10    1
    50    11    10    1
    51    11    12    1
    52    12    13   am
    53    13    14    2
    54    13    15   am
    55    15    60    1
    56    60    61    1
    57    61    62   ar
    58    62    63   ar
    59    63    64   ar
    60    64    65   ar
    61    65    66   ar
    62    12     1    1
    63    66    61   ar
    64    11     5    1
    65    27    21   ar
    66    39    30   ar
    67    39    34   ar
    68    45    40   ar
    69    59    54   ar
    70    25    28    1
    71    46    50    1
    72    49    51    1
    73    15    16    1
@<TRIPOS>MOLECULE
*****
 66 73 0 0 0
SMALL
GASTEIGER

@<TRIPOS>ATOM
      1 N          63.9363   94.9669   -5.1605 N.3     1  UNL1       -0.1862
      2 C          63.1476   94.5772   -6.3754 C.3     1  UNL1        0.1775
      3 C          61.6488   94.6286   -6.3449 C.2     1  UNL1        0.2452
      4 O          60.8601   94.2389   -7.5599 O.2     1  UNL1       -0.2732
      5 N          60.9387   95.0696   -5.0994 N.am    1  UNL1       -0.2541
      6 C          59.4399   95.1210   -5.0689 C.3     1  UNL1        0.1577
      7 C          58.7298   95.5621   -3.8235 C.2     1  UNL1        0.2445
      8 O          57.2310   95.6135   -3.7929 O.2     1  UNL1       -0.2731
      9 N          59.5185   95.9518   -2.6085 N.am    1  UNL1       -0.2705
     10 C          61.0174   95.9004   -2.6390 C.3     1  UNL1        0.1359
     11 C          61.7274   95.4593   -3.8846 C.3     1  UNL1        0.1908
     12 N          63.2263   95.4079   -3.9151 N.am    1  UNL1       -0.1863
     13 C          64.0150   95.7976   -2.7001 C.2     1  UNL1        0.3191
     14 O          63.3049   96.2387   -1.4547 O.2     1  UNL1       -0.2512
     15 N          65.5138   95.7462   -2.7307 N.am    1  UNL1       -0.2836
     16 H          65.9798   95.4568   -3.5481 H       1  UNL1        0.1513
     17 C          65.4352   94.9155   -5.1911 C.3     1  UNL1        0.1188
     18 C          65.9107   96.1456   -7.4295 C.2     1  UNL1       -0.0034
     19 C          66.2049   95.9380   -5.9734 C.2     1  UNL1       -0.0071
     20 C          58.6512   94.7314   -6.2838 C.3     1  UNL1        0.0556
     21 C          57.6613   93.6070   -6.2065 C.ar    1  UNL1       -0.0198
     22 C          57.7645   92.5911   -5.1079 C.ar    1  UNL1       -0.0011
     23 C          56.7746   91.4667   -5.0306 C.ar    1  UNL1        0.0363
     24 C          55.6815   91.3583   -6.0520 C.ar    1  UNL1        0.1337
     25 O          54.6917   90.2340   -5.9747 O.3     1  UNL1       -0.5055
     26 C          55.5783   92.3743   -7.1508 C.ar    1  UNL1        0.0363
     27 C          56.5682   93.4986   -7.2280 C.ar    1  UNL1       -0.0011
     28 H          54.7561   89.5993   -5.2884 H       1  UNL1        0.2922
     29 C          58.8085   96.3929   -1.3630 C.3     1  UNL1        0.1217
     30 C          59.3122   95.9583   -0.0186 C.ar    1  UNL1        0.0135
     31 C          60.2238   96.8543    0.7663 C.ar    1  UNL1       -0.0012
     32 C          60.7275   96.4198    2.1107 C.ar    1  UNL1       -0.0002
     33 C          60.3197   95.0892    2.6702 C.ar    1  UNL1        0.0015
     34 C          59.4081   94.1931    1.8853 C.ar    1  UNL1        0.0170
     35 C          58.8393   92.8362    2.1770 C.ar    1  UNL1        0.0186
     36 C          57.9840   92.4321    1.0129 C.ar    1  UNL1        0.0759
     37 N          58.0242   93.5392    0.0018 N.ar    1  UNL1       -0.3242
     38 C          57.3097   93.5553   -1.3170 C.3     1  UNL1        0.1305
     39 C          58.9044   94.6276    0.5409 C.ar    1  UNL1        0.0575
     40 C          59.0830   92.0256    3.4154 C.ar    1  UNL1        0.0016
     41 C          57.9437   91.7009    4.3355 C.ar    1  UNL1        0.0013
     42 C          58.1875   90.8903    5.5739 C.ar    1  UNL1        0.0147
     43 C          59.5705   90.4045    5.8922 C.ar    1  UNL1        0.0516
     44 C          60.7097   90.7292    4.9721 C.ar    1  UNL1        0.0147
     45 C          60.4660   91.5397    3.7337 C.ar    1  UNL1        0.0013
     46 N          59.8141   89.5940    7.1305 N.am    1  UNL1       -0.2683
     47 C          60.9768   89.9169    8.0217 C.2     1  UNL1        0.3045
     48 O          61.8957   91.0504    7.6744 O.2     1  UNL1       -0.2525
     49 N          61.2204   89.1063    9.2600 N.am    1  UNL1       -0.2884
     50 H          59.2110   88.8500    7.3585 H       1  UNL1        0.1564
     51 H          60.6172   88.3623    9.4880 H       1  UNL1        0.1510
     52 C          62.3830   89.4293   10.1511 C.3     1  UNL1        0.0956
     53 C          62.1995   90.3539   11.3179 C.3     1  UNL1        0.0476
     54 C          63.3525   90.6463   12.2318 C.ar    1  UNL1       -0.0205
     55 C          63.5374   89.8445   13.4859 C.ar    1  UNL1       -0.0042
     56 C          64.6904   90.1369   14.3999 C.ar    1  UNL1       -0.0003
     57 C          65.6583   91.2311   14.0595 C.ar    1  UNL1       -0.0000
     58 C          65.4734   92.0329   12.8054 C.ar    1  UNL1       -0.0003
     59 C          64.3204   91.7405   11.8915 C.ar    1  UNL1       -0.0042
     60 C          66.3025   96.1359   -1.5158 C.3     1  UNL1        0.1177
     61 C          65.8035   95.7715   -0.1489 C.ar    1  UNL1       -0.0025
     62 C          65.6298   96.8351    0.8943 C.ar    1  UNL1       -0.0026
     63 C          65.1308   96.4706    2.2612 C.ar    1  UNL1       -0.0003
     64 C          64.8056   95.0425    2.5847 C.ar    1  UNL1       -0.0000
     65 C          64.9794   93.9788    1.5414 C.ar    1  UNL1       -0.0003
     66 C          65.4784   94.3433    0.1746 C.ar    1  UNL1       -0.0026
@<TRIPOS>BOND
     1    18    19    2
     2    19    17    1
     3    17     1    1
     4     1     2    1
     5     2     3    1
     6     3     4    2
     7     3     5   am
     8     5     6    1
     9     6    20    1
    10    20    21    1
    11    21    22   ar
    12    22    23   ar
    13    23    24   ar
    14    24    25    1
    15    24    26   ar
    16    26    27   ar
    17     6     7    1
    18     7     8    2
    19     7     9   am
    20     9    29    1
    21    29    30    1
    22    30    31   ar
    23    31    32   ar
    24    32    33   ar
    25    33    34   ar
    26    34    35   ar
    27    35    40    1
    28    40    41   ar
    29    41    42   ar
    30    42    43   ar
    31    43    46    1
    32    46    47   am
    33    47    48    2
    34    47    49   am
    35    49    52    1
    36    52    53    1
    37    53    54    1
    38    54    55   ar
    39    55    56   ar
    40    56    57   ar
    41    57    58   ar
    42    58    59   ar
    43    43    44   ar
    44    44    45   ar
    45    35    36   ar
    46    36    37   ar
    47    37    38    1
    48    37    39   ar
    49     9    10    1
    50    11    10    1
    51    11    12    1
    52    12    13   am
    53    13    14    2
    54    13    15   am
    55    15    60    1
    56    60    61    1
    57    61    62   ar
    58    62    63   ar
    59    63    64   ar
    60    64    65   ar
    61    65    66   ar
    62    12     1    1
    63    66    61   ar
    64    11     5    1
    65    27    21   ar
    66    39    30   ar
    67    39    34   ar
    68    45    40   ar
    69    59    54   ar
    70    25    28    1
    71    46    50    1
    72    49    51    1
    73    15    16    1
