@<TRIPOS>MOLECULE
*****
 28 32 0 0 0
SMALL
GASTEIGER

@<TRIPOS>ATOM
      1 C          64.6607   90.5234   13.2788 C.3     1  UNL1        0.0581
      2 C          63.6944   91.0374   12.2533 C.3     1  UNL1        0.0163
      3 C          62.8496   89.8862   11.7943 C.3     1  UNL1        0.0059
      4 C          63.2938   88.6605   12.5361 C.3     1  UNL1        0.0273
      5 C          63.9153   87.5995   13.3953 C.3     1  UNL1        0.0336
      6 C          63.5705   86.1420   13.4778 C.ar    1  UNL1        0.0127
      7 C          64.4404   85.4284   14.4697 C.ar    1  UNL1       -0.0012
      8 C          64.2589   83.9582   14.7052 C.ar    1  UNL1       -0.0001
      9 C          63.2074   83.2016   13.9490 C.ar    1  UNL1        0.0031
     10 C          62.3374   83.9153   12.9571 C.ar    1  UNL1        0.0372
     11 C          62.5189   85.3855   12.7216 C.ar    1  UNL1        0.1413
     12 O          61.5526   85.8997   11.6960 O.3     1  UNL1       -0.4541
     13 C          61.3990   87.2972   11.1733 C.ar    1  UNL1        0.1412
     14 C          60.3063   87.3825   10.1493 C.ar    1  UNL1        0.0372
     15 C          59.9885   88.6964    9.4991 C.ar    1  UNL1        0.0031
     16 C          60.7634   89.9250    9.8730 C.ar    1  UNL1       -0.0001
     17 C          61.8562   89.8398   10.8971 C.ar    1  UNL1       -0.0013
     18 C          62.1739   88.5259   11.5473 C.ar    1  UNL1        0.0121
     19 C          64.4132   89.0543   13.4537 C.3     1  UNL1        0.0204
     20 C          67.7586   92.9604   15.4500 C.2     1  UNL1       -0.0097
     21 C          68.0298   92.4706   14.0584 C.2     1  UNL1       -0.0119
     22 C          66.9972   91.6582   13.3347 C.3     1  UNL1        0.0986
     23 N          65.6933   91.3357   14.0026 N.3     1  UNL1       -0.2700
     24 C          65.4222   91.8256   15.3942 C.3     1  UNL1        0.0771
     25 C          66.4548   92.6378   16.1179 C.3     1  UNL1        0.0445
     26 O          69.9830   93.0977   16.7853 O.co2   1  UNL1       -0.5449
     27 C          68.7913   93.7727   16.1737 C.2     1  UNL1        0.0687
     28 O          68.6322   95.2600   16.2859 O.co2   1  UNL1       -0.5449
@<TRIPOS>UNITY_ATOM_ATTR
26 1
charge -1
@<TRIPOS>BOND
     1    26    27   ar
     2    27    28   ar
     3    27    20    1
     4    20    21    2
     5    21    22    1
     6    22    23    1
     7    23     1    1
     8     1     2    1
     9     2     3    1
    10     3     4    1
    11     4     5    1
    12     5     6    1
    13     6     7   ar
    14     7     8   ar
    15     8     9   ar
    16     9    10   ar
    17    10    11   ar
    18    11    12    1
    19    12    13    1
    20    13    14   ar
    21    14    15   ar
    22    15    16   ar
    23    16    17   ar
    24    17    18   ar
    25     4    19    1
    26    23    24    1
    27    24    25    1
    28    25    20    1
    29    19     1    1
    30    18     4    1
    31    11     6   ar
    32    18    13   ar
@<TRIPOS>MOLECULE
*****
 28 32 0 0 0
SMALL
GASTEIGER

@<TRIPOS>ATOM
      1 C          63.5579   89.9862   12.1061 C.3     1  UNL1        0.0581
      2 C          62.6269   90.4467   11.0240 C.3     1  UNL1        0.0163
      3 C          61.9500   89.2378   10.4494 C.3     1  UNL1        0.0059
      4 C          62.4627   88.0301   11.1765 C.3     1  UNL1        0.0273
      5 C          63.1239   86.9986   12.0418 C.3     1  UNL1        0.0336
      6 C          62.9322   85.5109   12.0364 C.ar    1  UNL1        0.0127
      7 C          63.7918   84.8438   13.0688 C.ar    1  UNL1       -0.0012
      8 C          63.7510   83.3530   13.2290 C.ar    1  UNL1       -0.0001
      9 C          62.8505   82.5293   12.3569 C.ar    1  UNL1        0.0031
     10 C          61.9909   83.1964   11.3245 C.ar    1  UNL1        0.0372
     11 C          62.0317   84.6872   11.1643 C.ar    1  UNL1        0.1413
     12 O          61.1006   85.1478   10.0821 O.3     1  UNL1       -0.4541
     13 C          60.8400   86.5458    9.6048 C.ar    1  UNL1        0.1412
     14 C          59.8297   86.5671    8.4963 C.ar    1  UNL1        0.0372
     15 C          59.4256   87.8711    7.8749 C.ar    1  UNL1        0.0031
     16 C          60.0317   89.1538    8.3619 C.ar    1  UNL1       -0.0001
     17 C          61.0421   89.1325    9.4704 C.ar    1  UNL1       -0.0013
     18 C          61.4462   87.8285   10.0919 C.ar    1  UNL1        0.0121
     19 C          63.4565   88.4926   12.2004 C.3     1  UNL1        0.0204
     20 C          66.1930   92.6225   14.6273 C.2     1  UNL1       -0.0097
     21 C          65.4347   91.4942   15.2612 C.2     1  UNL1       -0.0119
     22 C          64.5563   90.6154   14.4208 C.3     1  UNL1        0.0986
     23 N          64.4363   90.8650   12.9465 N.3     1  UNL1       -0.2700
     24 C          65.1947   91.9933   12.3127 C.3     1  UNL1        0.0771
     25 C          66.0730   92.8720   13.1530 C.3     1  UNL1        0.0445
     26 O          67.8522   94.6116   14.8293 O.co2   1  UNL1       -0.5449
     27 C          67.0714   93.5013   15.4677 C.2     1  UNL1        0.0687
     28 O          67.1690   93.2698   16.9465 O.co2   1  UNL1       -0.5449
@<TRIPOS>UNITY_ATOM_ATTR
26 1
charge -1
@<TRIPOS>BOND
     1    26    27   ar
     2    27    28   ar
     3    27    20    1
     4    20    21    2
     5    21    22    1
     6    22    23    1
     7    23     1    1
     8     1     2    1
     9     2     3    1
    10     3     4    1
    11     4     5    1
    12     5     6    1
    13     6     7   ar
    14     7     8   ar
    15     8     9   ar
    16     9    10   ar
    17    10    11   ar
    18    11    12    1
    19    12    13    1
    20    13    14   ar
    21    14    15   ar
    22    15    16   ar
    23    16    17   ar
    24    17    18   ar
    25     4    19    1
    26    23    24    1
    27    24    25    1
    28    25    20    1
    29    19     1    1
    30    18     4    1
    31    11     6   ar
    32    18    13   ar
@<TRIPOS>MOLECULE
*****
 28 32 0 0 0
SMALL
GASTEIGER

@<TRIPOS>ATOM
      1 C          63.2422   90.2228   11.3415 C.3     1  UNL1        0.0581
      2 C          63.5449   90.0126   12.7955 C.3     1  UNL1        0.0163
      3 C          64.4770   91.1016   13.2371 C.3     1  UNL1        0.0059
      4 C          64.7504   91.9849   12.0560 C.3     1  UNL1        0.0273
      5 C          64.8603   92.7008   10.7424 C.3     1  UNL1        0.0336
      6 C          65.6526   93.9306   10.4109 C.ar    1  UNL1        0.0127
      7 C          65.4846   94.3193    8.9719 C.ar    1  UNL1       -0.0012
      8 C          66.1948   95.5257    8.4331 C.ar    1  UNL1       -0.0001
      9 C          67.0729   96.3433    9.3333 C.ar    1  UNL1        0.0031
     10 C          67.2409   95.9546   10.7723 C.ar    1  UNL1        0.0372
     11 C          66.5307   94.7483   11.3111 C.ar    1  UNL1        0.1413
     12 O          66.8334   94.5380   12.7651 O.3     1  UNL1       -0.4541
     13 C          66.3328   93.4583   13.6781 C.ar    1  UNL1        0.1412
     14 C          66.8819   93.6151   15.0651 C.ar    1  UNL1        0.0372
     15 C          66.5040   92.6357   16.1365 C.ar    1  UNL1        0.0031
     16 C          65.5771   91.4995   15.8209 C.ar    1  UNL1       -0.0001
     17 C          65.0279   91.3426   14.4339 C.ar    1  UNL1       -0.0013
     18 C          65.4057   92.3221   13.3625 C.ar    1  UNL1        0.0121
     19 C          63.9872   91.4418   10.8844 C.3     1  UNL1        0.0204
     20 C          60.5683   87.6483    8.7974 C.2     1  UNL1       -0.0097
     21 C          60.3050   89.1206    8.9108 C.2     1  UNL1       -0.0119
     22 C          61.1963   89.9788    9.7588 C.3     1  UNL1        0.0986
     23 N          62.3509   89.3646   10.4935 N.3     1  UNL1       -0.2700
     24 C          62.6142   87.8922   10.3800 C.3     1  UNL1        0.0771
     25 C          61.7230   87.0341    9.5320 C.3     1  UNL1        0.0445
     26 O          60.2342   85.5776    7.2642 O.co2   1  UNL1       -0.5449
     27 C          59.6770   86.7901    7.9493 C.2     1  UNL1        0.0687
     28 O          58.2287   87.1444    7.7864 O.co2   1  UNL1       -0.5449
@<TRIPOS>UNITY_ATOM_ATTR
26 1
charge -1
@<TRIPOS>BOND
     1    26    27   ar
     2    27    28   ar
     3    27    20    1
     4    20    21    2
     5    21    22    1
     6    22    23    1
     7    23     1    1
     8     1     2    1
     9     2     3    1
    10     3     4    1
    11     4     5    1
    12     5     6    1
    13     6     7   ar
    14     7     8   ar
    15     8     9   ar
    16     9    10   ar
    17    10    11   ar
    18    11    12    1
    19    12    13    1
    20    13    14   ar
    21    14    15   ar
    22    15    16   ar
    23    16    17   ar
    24    17    18   ar
    25     4    19    1
    26    23    24    1
    27    24    25    1
    28    25    20    1
    29    19     1    1
    30    18     4    1
    31    11     6   ar
    32    18    13   ar
@<TRIPOS>MOLECULE
*****
 28 32 0 0 0
SMALL
GASTEIGER

@<TRIPOS>ATOM
      1 C          62.7223   85.0869   12.2717 C.3     1  UNL1        0.0581
      2 C          63.4798   86.0724   13.1112 C.3     1  UNL1        0.0163
      3 C          63.2192   87.4444   12.5640 C.3     1  UNL1        0.0059
      4 C          62.3004   87.3069   11.3863 C.3     1  UNL1        0.0273
      5 C          61.3921   86.9060   10.2619 C.3     1  UNL1        0.0336
      6 C          60.7163   87.7810    9.2481 C.ar    1  UNL1        0.0127
      7 C          59.8896   86.9738    8.2916 C.ar    1  UNL1       -0.0012
      8 C          59.1285   87.6586    7.1954 C.ar    1  UNL1       -0.0001
      9 C          59.1941   89.1506    7.0557 C.ar    1  UNL1        0.0031
     10 C          60.0208   89.9579    8.0122 C.ar    1  UNL1        0.0372
     11 C          60.7818   89.2730    9.1084 C.ar    1  UNL1        0.1413
     12 O          61.5395   90.2585    9.9480 O.3     1  UNL1       -0.4541
     13 C          62.4186   89.9955   11.1346 C.ar    1  UNL1        0.1412
     14 C          62.9892   91.2681   11.6868 C.ar    1  UNL1        0.0372
     15 C          63.8984   91.2270   12.8791 C.ar    1  UNL1        0.0031
     16 C          64.2371   89.9135   13.5192 C.ar    1  UNL1       -0.0001
     17 C          63.6665   88.6408   12.9669 C.ar    1  UNL1       -0.0013
     18 C          62.7572   88.6819   11.7746 C.ar    1  UNL1        0.0121
     19 C          61.9933   85.8498   11.2056 C.3     1  UNL1        0.0204
     20 C          62.6491   80.6248   12.8499 C.2     1  UNL1       -0.0097
     21 C          63.0043   81.2019   11.5117 C.2     1  UNL1       -0.0119
     22 C          63.0287   82.6893   11.3190 C.3     1  UNL1        0.0986
     23 N          62.6979   83.5995   12.4645 N.3     1  UNL1       -0.2700
     24 C          62.3427   83.0223   13.8027 C.3     1  UNL1        0.0771
     25 C          62.3183   81.5350   13.9954 C.3     1  UNL1        0.0445
     26 O          62.6217   78.5605   14.4273 O.co2   1  UNL1       -0.5449
     27 C          62.6247   79.1374   13.0427 C.2     1  UNL1        0.0687
     28 O          62.6034   78.2269   11.8509 O.co2   1  UNL1       -0.5449
@<TRIPOS>UNITY_ATOM_ATTR
26 1
charge -1
@<TRIPOS>BOND
     1    26    27   ar
     2    27    28   ar
     3    27    20    1
     4    20    21    2
     5    21    22    1
     6    22    23    1
     7    23     1    1
     8     1     2    1
     9     2     3    1
    10     3     4    1
    11     4     5    1
    12     5     6    1
    13     6     7   ar
    14     7     8   ar
    15     8     9   ar
    16     9    10   ar
    17    10    11   ar
    18    11    12    1
    19    12    13    1
    20    13    14   ar
    21    14    15   ar
    22    15    16   ar
    23    16    17   ar
    24    17    18   ar
    25     4    19    1
    26    23    24    1
    27    24    25    1
    28    25    20    1
    29    19     1    1
    30    18     4    1
    31    11     6   ar
    32    18    13   ar
@<TRIPOS>MOLECULE
*****
 28 32 0 0 0
SMALL
GASTEIGER

@<TRIPOS>ATOM
      1 C          57.9333   94.6879   -3.0223 C.3     1  UNL1        0.0581
      2 C          58.9267   94.7524   -4.1443 C.3     1  UNL1        0.0163
      3 C          60.2650   94.3460   -3.6024 C.3     1  UNL1        0.0059
      4 C          60.0987   94.0304   -2.1454 C.3     1  UNL1        0.0273
      5 C          59.6742   93.7778   -0.7291 C.3     1  UNL1        0.0336
      6 C          60.5103   93.3265    0.4316 C.ar    1  UNL1        0.0127
      7 C          59.6895   93.1959    1.6803 C.ar    1  UNL1       -0.0012
      8 C          60.3360   92.7551    2.9600 C.ar    1  UNL1       -0.0001
      9 C          61.8033   92.4449    2.9911 C.ar    1  UNL1        0.0031
     10 C          62.6240   92.5755    1.7424 C.ar    1  UNL1        0.0372
     11 C          61.9775   93.0162    0.4627 C.ar    1  UNL1        0.1413
     12 O          62.9710   93.0807   -0.6594 O.3     1  UNL1       -0.4541
     13 C          62.7426   93.4714   -2.0895 C.ar    1  UNL1        0.1412
     14 C          64.0115   93.4009   -2.8862 C.ar    1  UNL1        0.0372
     15 C          64.0022   93.7530   -4.3443 C.ar    1  UNL1        0.0031
     16 C          62.7240   94.1757   -5.0056 C.ar    1  UNL1       -0.0001
     17 C          61.4550   94.2462   -4.2089 C.ar    1  UNL1       -0.0013
     18 C          61.4643   93.8940   -2.7508 C.ar    1  UNL1        0.0121
     19 C          58.6576   94.2417   -1.7869 C.3     1  UNL1        0.0204
     20 C          53.5495   95.6620   -3.3118 C.2     1  UNL1       -0.0097
     21 C          54.1465   95.2765   -1.9908 C.2     1  UNL1       -0.0119
     22 C          55.6077   94.9518   -1.8943 C.3     1  UNL1        0.0986
     23 N          56.4720   95.0126   -3.1188 N.3     1  UNL1       -0.2700
     24 C          55.8750   95.3982   -4.4398 C.3     1  UNL1        0.0771
     25 C          54.4138   95.7229   -4.5363 C.3     1  UNL1        0.0445
     26 O          51.5851   96.8560   -4.5224 O.co2   1  UNL1       -0.5449
     27 C          52.0882   95.9868   -3.4083 C.2     1  UNL1        0.0687
     28 O          51.1301   95.4423   -2.3907 O.co2   1  UNL1       -0.5449
@<TRIPOS>UNITY_ATOM_ATTR
26 1
charge -1
@<TRIPOS>BOND
     1    26    27   ar
     2    27    28   ar
     3    27    20    1
     4    20    21    2
     5    21    22    1
     6    22    23    1
     7    23     1    1
     8     1     2    1
     9     2     3    1
    10     3     4    1
    11     4     5    1
    12     5     6    1
    13     6     7   ar
    14     7     8   ar
    15     8     9   ar
    16     9    10   ar
    17    10    11   ar
    18    11    12    1
    19    12    13    1
    20    13    14   ar
    21    14    15   ar
    22    15    16   ar
    23    16    17   ar
    24    17    18   ar
    25     4    19    1
    26    23    24    1
    27    24    25    1
    28    25    20    1
    29    19     1    1
    30    18     4    1
    31    11     6   ar
    32    18    13   ar
@<TRIPOS>MOLECULE
*****
 28 32 0 0 0
SMALL
GASTEIGER

@<TRIPOS>ATOM
      1 C          60.9257   87.7578    9.3823 C.3     1  UNL1        0.0581
      2 C          60.9978   86.2637    9.4937 C.3     1  UNL1        0.0163
      3 C          61.8396   85.9281   10.6890 C.3     1  UNL1        0.0059
      4 C          62.2877   87.2149   11.3163 C.3     1  UNL1        0.0273
      5 C          62.5967   88.6185   11.7456 C.3     1  UNL1        0.0336
      6 C          63.4207   89.0804   12.9108 C.ar    1  UNL1        0.0127
      7 C          63.4778   90.5775   12.9825 C.ar    1  UNL1       -0.0012
      8 C          64.2536   91.2468   14.0780 C.ar    1  UNL1       -0.0001
      9 C          64.9722   90.4189   15.1018 C.ar    1  UNL1        0.0031
     10 C          64.9151   88.9218   15.0301 C.ar    1  UNL1        0.0372
     11 C          64.1393   88.2525   13.9346 C.ar    1  UNL1        0.1413
     12 O          64.2114   86.7583   14.0460 O.3     1  UNL1       -0.4541
     13 C          63.5827   85.7230   13.1612 C.ar    1  UNL1        0.1412
     14 C          63.9055   84.3344   13.6274 C.ar    1  UNL1        0.0372
     15 C          63.3723   83.1489   12.8789 C.ar    1  UNL1        0.0031
     16 C          62.5162   83.3521   11.6641 C.ar    1  UNL1       -0.0001
     17 C          62.1933   84.7408   11.1978 C.ar    1  UNL1       -0.0013
     18 C          62.7266   85.9262   11.9464 C.ar    1  UNL1        0.0121
     19 C          61.7230   88.3457   10.5087 C.3     1  UNL1        0.0204
     20 C          58.7073   90.0706    6.2232 C.2     1  UNL1       -0.0097
     21 C          59.8464   90.7105    6.9601 C.2     1  UNL1       -0.0119
     22 C          60.5858   89.9396    8.0131 C.3     1  UNL1        0.0986
     23 N          60.1863   88.5287    8.3293 N.3     1  UNL1       -0.2700
     24 C          59.0471   87.8888    7.5923 C.3     1  UNL1        0.0771
     25 C          58.3077   88.6597    6.5394 C.3     1  UNL1        0.0445
     26 O          58.7283   91.6099    4.1304 O.co2   1  UNL1       -0.5449
     27 C          57.9678   90.8415    5.1702 C.2     1  UNL1        0.0687
     28 O          56.4679   90.8440    5.1569 O.co2   1  UNL1       -0.5449
@<TRIPOS>UNITY_ATOM_ATTR
26 1
charge -1
@<TRIPOS>BOND
     1    26    27   ar
     2    27    28   ar
     3    27    20    1
     4    20    21    2
     5    21    22    1
     6    22    23    1
     7    23     1    1
     8     1     2    1
     9     2     3    1
    10     3     4    1
    11     4     5    1
    12     5     6    1
    13     6     7   ar
    14     7     8   ar
    15     8     9   ar
    16     9    10   ar
    17    10    11   ar
    18    11    12    1
    19    12    13    1
    20    13    14   ar
    21    14    15   ar
    22    15    16   ar
    23    16    17   ar
    24    17    18   ar
    25     4    19    1
    26    23    24    1
    27    24    25    1
    28    25    20    1
    29    19     1    1
    30    18     4    1
    31    11     6   ar
    32    18    13   ar
@<TRIPOS>MOLECULE
*****
 28 32 0 0 0
SMALL
GASTEIGER

@<TRIPOS>ATOM
      1 C          63.7728   87.9161   13.6758 C.3     1  UNL1        0.0581
      2 C          64.2069   86.5172   13.9993 C.3     1  UNL1        0.0163
      3 C          63.6479   85.6039   12.9489 C.3     1  UNL1        0.0059
      4 C          62.8684   86.4383   11.9763 C.3     1  UNL1        0.0273
      5 C          62.1610   87.4792   11.1600 C.3     1  UNL1        0.0336
      6 C          61.3539   87.2974    9.9088 C.ar    1  UNL1        0.0127
      7 C          60.8161   88.6052    9.4087 C.ar    1  UNL1       -0.0012
      8 C          59.9791   88.6454    8.1647 C.ar    1  UNL1       -0.0001
      9 C          59.6799   87.3778    7.4207 C.ar    1  UNL1        0.0031
     10 C          60.2178   86.0699    7.9208 C.ar    1  UNL1        0.0372
     11 C          61.0547   86.0297    9.1648 C.ar    1  UNL1        0.1413
     12 O          61.4889   84.6308    9.4883 O.3     1  UNL1       -0.4541
     13 C          62.3293   84.1540   10.6356 C.ar    1  UNL1        0.1412
     14 C          62.5293   82.6682   10.5882 C.ar    1  UNL1        0.0372
     15 C          63.3432   81.9867   11.6481 C.ar    1  UNL1        0.0031
     16 C          63.9571   82.7911   12.7553 C.ar    1  UNL1       -0.0001
     17 C          63.7571   84.2770   12.8027 C.ar    1  UNL1       -0.0013
     18 C          62.9432   84.9584   11.7429 C.ar    1  UNL1        0.0121
     19 C          62.9455   87.8673   12.4255 C.3     1  UNL1        0.0204
     20 C          64.7762   91.6105   16.0411 C.2     1  UNL1       -0.0097
     21 C          63.7558   90.6416   16.5606 C.2     1  UNL1       -0.0119
     22 C          63.4213   89.4101   15.7722 C.3     1  UNL1        0.0986
     23 N          64.1073   89.1475   14.4643 N.3     1  UNL1       -0.2700
     24 C          65.1278   90.1166   13.9448 C.3     1  UNL1        0.0771
     25 C          65.4622   91.3480   14.7332 C.3     1  UNL1        0.0445
     26 O          64.0429   93.5408   17.6179 O.co2   1  UNL1       -0.5449
     27 C          65.1107   92.8420   16.8295 C.2     1  UNL1        0.0687
     28 O          66.5129   93.3747   16.8296 O.co2   1  UNL1       -0.5449
@<TRIPOS>UNITY_ATOM_ATTR
26 1
charge -1
@<TRIPOS>BOND
     1    26    27   ar
     2    27    28   ar
     3    27    20    1
     4    20    21    2
     5    21    22    1
     6    22    23    1
     7    23     1    1
     8     1     2    1
     9     2     3    1
    10     3     4    1
    11     4     5    1
    12     5     6    1
    13     6     7   ar
    14     7     8   ar
    15     8     9   ar
    16     9    10   ar
    17    10    11   ar
    18    11    12    1
    19    12    13    1
    20    13    14   ar
    21    14    15   ar
    22    15    16   ar
    23    16    17   ar
    24    17    18   ar
    25     4    19    1
    26    23    24    1
    27    24    25    1
    28    25    20    1
    29    19     1    1
    30    18     4    1
    31    11     6   ar
    32    18    13   ar
@<TRIPOS>MOLECULE
*****
 28 32 0 0 0
SMALL
GASTEIGER

@<TRIPOS>ATOM
      1 C          72.4227   76.0648   13.5466 C.3     1  UNL1        0.0581
      2 C          72.9233   75.9237   14.9534 C.3     1  UNL1        0.0163
      3 C          72.6099   74.5329   15.4197 C.3     1  UNL1        0.0059
      4 C          71.9155   73.8144   14.3009 C.3     1  UNL1        0.0273
      5 C          71.2509   73.3269   13.0477 C.3     1  UNL1        0.0336
      6 C          70.6595   71.9773   12.7668 C.ar    1  UNL1        0.0127
      7 C          70.0912   71.9057   11.3805 C.ar    1  UNL1       -0.0012
      8 C          69.4500   70.6387   10.8973 C.ar    1  UNL1       -0.0001
      9 C          69.3773   69.4432   11.8004 C.ar    1  UNL1        0.0031
     10 C          69.9457   69.5148   13.1867 C.ar    1  UNL1        0.0372
     11 C          70.5868   70.7818   13.6699 C.ar    1  UNL1        0.1413
     12 O          71.0875   70.6407   15.0768 O.3     1  UNL1       -0.4541
     13 C          71.7845   71.6602   15.9282 C.ar    1  UNL1        0.1412
     14 C          72.1178   71.1079   17.2824 C.ar    1  UNL1        0.0372
     15 C          72.8196   71.9679   18.2912 C.ar    1  UNL1        0.0031
     16 C          73.1881   73.3803   17.9459 C.ar    1  UNL1       -0.0001
     17 C          72.8548   73.9327   16.5917 C.ar    1  UNL1       -0.0013
     18 C          72.1530   73.0726   15.5828 C.ar    1  UNL1        0.0121
     19 C          71.7998   74.7612   13.1432 C.3     1  UNL1        0.0204
     20 C          72.7346   79.7517   10.9854 C.2     1  UNL1       -0.0097
     21 C          72.1838   79.8497   12.3771 C.2     1  UNL1       -0.0119
     22 C          72.0798   78.6208   13.2309 C.3     1  UNL1        0.0986
     23 N          72.5267   77.2937   12.6928 N.3     1  UNL1       -0.2700
     24 C          73.0775   77.1958   11.3010 C.3     1  UNL1        0.0771
     25 C          73.1815   78.4246   10.4473 C.3     1  UNL1        0.0445
     26 O          72.1557   82.2475   10.5544 O.co2   1  UNL1       -0.5449
     27 C          72.8386   80.9806   10.1316 C.2     1  UNL1        0.0687
     28 O          73.6255   80.9428    8.8552 O.co2   1  UNL1       -0.5449
@<TRIPOS>UNITY_ATOM_ATTR
26 1
charge -1
@<TRIPOS>BOND
     1    26    27   ar
     2    27    28   ar
     3    27    20    1
     4    20    21    2
     5    21    22    1
     6    22    23    1
     7    23     1    1
     8     1     2    1
     9     2     3    1
    10     3     4    1
    11     4     5    1
    12     5     6    1
    13     6     7   ar
    14     7     8   ar
    15     8     9   ar
    16     9    10   ar
    17    10    11   ar
    18    11    12    1
    19    12    13    1
    20    13    14   ar
    21    14    15   ar
    22    15    16   ar
    23    16    17   ar
    24    17    18   ar
    25     4    19    1
    26    23    24    1
    27    24    25    1
    28    25    20    1
    29    19     1    1
    30    18     4    1
    31    11     6   ar
    32    18    13   ar
