@<TRIPOS>MOLECULE
*****
 22 24 0 0 0
SMALL
GASTEIGER

@<TRIPOS>ATOM
      1 C          62.8301   85.0848   11.2314 C.ar    1  UNL1        0.0428
      2 C          63.0108   84.6088    9.8204 C.ar    1  UNL1        0.0077
      3 C          63.8941   83.4309    9.5336 C.ar    1  UNL1        0.0006
      4 C          64.5967   82.7289   10.6577 C.ar    1  UNL1        0.0013
      5 C          64.4160   83.2048   12.0686 C.ar    1  UNL1        0.0150
      6 C          63.5327   84.3828   12.3555 C.ar    1  UNL1        0.0540
      7 N          63.3520   84.8588   13.7664 N.pl3   1  UNL1       -0.3043
      8 C          62.3451   84.1954   14.6586 C.3     1  UNL1        0.1079
      9 C          62.1644   84.6713   16.0696 C.3     1  UNL1        0.0903
     10 N          62.9907   85.8108   16.5884 N.3     1  UNL1       -0.2946
     11 C          63.9976   86.4741   15.6962 C.3     1  UNL1        0.0903
     12 C          64.1783   85.9981   14.2852 C.3     1  UNL1        0.1079
     13 H          63.5013   85.4593   17.3984 H       1  UNL1        0.1233
     14 S          61.9469   86.2627   11.5182 S.3     1  UNL1       -0.0848
     15 CL         59.3245   89.2164    7.0017 Cl      1  UNL1       -0.0822
     16 C          59.9801   88.4780    8.1308 C.ar    1  UNL1        0.0585
     17 C          59.8242   86.9905    8.2449 C.ar    1  UNL1        0.0120
     18 C          60.4798   86.2521    9.3740 C.ar    1  UNL1        0.0082
     19 C          61.2913   87.0011   10.3891 C.ar    1  UNL1        0.0401
     20 C          61.4471   88.4886   10.2750 C.ar    1  UNL1        0.0645
     21 CL         62.2586   89.2378   11.2901 Cl      1  UNL1       -0.0817
     22 C          60.7915   89.2270    9.1459 C.ar    1  UNL1        0.0233
@<TRIPOS>BOND
     1    15    16    1
     2    16    17   ar
     3    17    18   ar
     4    18    19   ar
     5    19    14    1
     6    14     1    1
     7     1     2   ar
     8     2     3   ar
     9     3     4   ar
    10     4     5   ar
    11     5     6   ar
    12     6     7    1
    13     7     8    1
    14     8     9    1
    15     9    10    1
    16    10    11    1
    17    11    12    1
    18    19    20   ar
    19    20    21    1
    20    20    22   ar
    21    22    16   ar
    22     6     1   ar
    23    12     7    1
    24    10    13    1
@<TRIPOS>MOLECULE
*****
 22 24 0 0 0
SMALL
GASTEIGER

@<TRIPOS>ATOM
      1 C          62.7640   85.0317   11.2691 C.ar    1  UNL1        0.0428
      2 C          62.9618   84.5767    9.8534 C.ar    1  UNL1        0.0077
      3 C          63.9124   83.4564    9.5517 C.ar    1  UNL1        0.0006
      4 C          64.6654   82.7911   10.6654 C.ar    1  UNL1        0.0013
      5 C          64.4676   83.2461   12.0810 C.ar    1  UNL1        0.0150
      6 C          63.5169   84.3664   12.3828 C.ar    1  UNL1        0.0540
      7 N          63.3191   84.8214   13.7984 N.pl3   1  UNL1       -0.3043
      8 C          64.1732   85.9195   14.3595 C.3     1  UNL1        0.1079
      9 C          63.9754   86.3745   15.7751 C.3     1  UNL1        0.0903
     10 N          62.9236   85.7314   16.6296 N.3     1  UNL1       -0.2946
     11 C          62.0695   84.6333   16.0684 C.3     1  UNL1        0.0903
     12 C          62.2673   84.1784   14.6528 C.3     1  UNL1        0.1079
     13 H          62.2907   86.4742   16.9264 H       1  UNL1        0.1233
     14 S          61.8133   86.1520   11.5708 S.3     1  UNL1       -0.0848
     15 CL         63.3177   91.8050   10.2364 Cl      1  UNL1       -0.0822
     16 C          62.9416   90.3917   10.5700 C.ar    1  UNL1        0.0585
     17 C          63.4002   89.7780   11.8596 C.ar    1  UNL1        0.0120
     18 C          63.0241   88.3648   12.1932 C.ar    1  UNL1        0.0082
     19 C          62.1894   87.5653   11.2372 C.ar    1  UNL1        0.0401
     20 C          61.7307   88.1790    9.9477 C.ar    1  UNL1        0.0645
     21 CL         60.8959   87.3794    8.9917 Cl      1  UNL1       -0.0817
     22 C          62.1068   89.5922    9.6141 C.ar    1  UNL1        0.0233
@<TRIPOS>BOND
     1    15    16    1
     2    16    17   ar
     3    17    18   ar
     4    18    19   ar
     5    19    14    1
     6    14     1    1
     7     1     2   ar
     8     2     3   ar
     9     3     4   ar
    10     4     5   ar
    11     5     6   ar
    12     6     7    1
    13     7     8    1
    14     8     9    1
    15     9    10    1
    16    10    11    1
    17    11    12    1
    18    19    20   ar
    19    20    21    1
    20    20    22   ar
    21    22    16   ar
    22     6     1   ar
    23    12     7    1
    24    10    13    1
@<TRIPOS>MOLECULE
*****
 22 24 0 0 0
SMALL
GASTEIGER

@<TRIPOS>ATOM
      1 C          63.1666   90.5068   12.0358 C.ar    1  UNL1        0.0428
      2 C          63.4276   91.4150   10.8708 C.ar    1  UNL1        0.0077
      3 C          64.6707   92.2537   10.8374 C.ar    1  UNL1        0.0006
      4 C          65.6530   92.1842   11.9690 C.ar    1  UNL1        0.0013
      5 C          65.3920   91.2760   13.1339 C.ar    1  UNL1        0.0150
      6 C          64.1488   90.4373   13.1674 C.ar    1  UNL1        0.0540
      7 N          63.8879   89.5292   14.3323 N.pl3   1  UNL1       -0.3043
      8 C          64.2438   88.0747   14.2439 C.3     1  UNL1        0.1079
      9 C          63.9829   87.1666   15.4089 C.3     1  UNL1        0.0903
     10 N          63.3660   87.7129   16.6623 N.3     1  UNL1       -0.2946
     11 C          63.0101   89.1674   16.7507 C.3     1  UNL1        0.0903
     12 C          63.2711   90.0755   15.5857 C.3     1  UNL1        0.1079
     13 H          64.0221   87.5237   17.4200 H       1  UNL1        0.1233
     14 S          61.9234   89.6682   12.0693 S.3     1  UNL1       -0.0848
     15 CL         60.7905   85.8046    7.6208 Cl      1  UNL1       -0.0822
     16 C          61.0737   86.7705    8.7329 C.ar    1  UNL1        0.0585
     17 C          62.1008   86.4358    9.7736 C.ar    1  UNL1        0.0120
     18 C          62.3840   87.4017   10.8857 C.ar    1  UNL1        0.0082
     19 C          61.6402   88.7023   10.9571 C.ar    1  UNL1        0.0401
     20 C          60.6131   89.0369    9.9165 C.ar    1  UNL1        0.0645
     21 CL         59.8692   90.3376    9.9879 Cl      1  UNL1       -0.0817
     22 C          60.3299   88.0710    8.8043 C.ar    1  UNL1        0.0233
@<TRIPOS>BOND
     1    15    16    1
     2    16    17   ar
     3    17    18   ar
     4    18    19   ar
     5    19    14    1
     6    14     1    1
     7     1     2   ar
     8     2     3   ar
     9     3     4   ar
    10     4     5   ar
    11     5     6   ar
    12     6     7    1
    13     7     8    1
    14     8     9    1
    15     9    10    1
    16    10    11    1
    17    11    12    1
    18    19    20   ar
    19    20    21    1
    20    20    22   ar
    21    22    16   ar
    22     6     1   ar
    23    12     7    1
    24    10    13    1
@<TRIPOS>MOLECULE
*****
 22 24 0 0 0
SMALL
GASTEIGER

@<TRIPOS>ATOM
      1 C          63.0764   86.3149   12.4906 C.ar    1  UNL1        0.0428
      2 C          63.2451   87.8034   12.4118 C.ar    1  UNL1        0.0077
      3 C          63.9268   88.5409   13.5260 C.ar    1  UNL1        0.0006
      4 C          64.4397   87.7901   14.7190 C.ar    1  UNL1        0.0013
      5 C          64.2710   86.3017   14.7978 C.ar    1  UNL1        0.0150
      6 C          63.5893   85.5641   13.6836 C.ar    1  UNL1        0.0540
      7 N          63.4206   84.0757   13.7624 N.pl3   1  UNL1       -0.3043
      8 C          64.3947   83.1726   13.0656 C.3     1  UNL1        0.1079
      9 C          64.2260   81.6842   13.1444 C.3     1  UNL1        0.0903
     10 N          63.0832   81.0989   13.9201 N.3     1  UNL1       -0.2946
     11 C          62.1092   82.0021   14.6169 C.3     1  UNL1        0.0903
     12 C          62.2779   83.4905   14.5380 C.3     1  UNL1        0.1079
     13 H          63.4907   80.4972   14.6358 H       1  UNL1        0.1233
     14 S          62.3948   85.5774   11.3765 S.3     1  UNL1       -0.0848
     15 CL         59.1290   88.5879    7.3426 Cl      1  UNL1       -0.0822
     16 C          59.9455   87.8353    8.3511 C.ar    1  UNL1        0.0585
     17 C          59.7036   88.0422    9.8169 C.ar    1  UNL1        0.0120
     18 C          60.5200   87.2896   10.8254 C.ar    1  UNL1        0.0082
     19 C          61.5783   86.3300   10.3680 C.ar    1  UNL1        0.0401
     20 C          61.8202   86.1231    8.9022 C.ar    1  UNL1        0.0645
     21 CL         62.8785   85.1635    8.4448 Cl      1  UNL1       -0.0817
     22 C          61.0038   86.8757    7.8937 C.ar    1  UNL1        0.0233
@<TRIPOS>BOND
     1    15    16    1
     2    16    17   ar
     3    17    18   ar
     4    18    19   ar
     5    19    14    1
     6    14     1    1
     7     1     2   ar
     8     2     3   ar
     9     3     4   ar
    10     4     5   ar
    11     5     6   ar
    12     6     7    1
    13     7     8    1
    14     8     9    1
    15     9    10    1
    16    10    11    1
    17    11    12    1
    18    19    20   ar
    19    20    21    1
    20    20    22   ar
    21    22    16   ar
    22     6     1   ar
    23    12     7    1
    24    10    13    1
@<TRIPOS>MOLECULE
*****
 22 24 0 0 0
SMALL
GASTEIGER

@<TRIPOS>ATOM
      1 C          66.5603   92.1467   13.3297 C.ar    1  UNL1        0.0428
      2 C          67.5111   92.8816   14.2275 C.ar    1  UNL1        0.0077
      3 C          67.2048   93.0233   15.6890 C.ar    1  UNL1        0.0006
      4 C          65.9476   92.4301   16.2527 C.ar    1  UNL1        0.0013
      5 C          64.9969   91.6953   15.3550 C.ar    1  UNL1        0.0150
      6 C          65.3032   91.5536   13.8934 C.ar    1  UNL1        0.0540
      7 N          64.3525   90.8187   12.9956 N.pl3   1  UNL1       -0.3043
      8 C          64.0202   89.3820   13.2703 C.3     1  UNL1        0.1079
      9 C          63.0695   88.6472   12.3726 C.3     1  UNL1        0.0903
     10 N          62.4509   89.3491   11.2000 N.3     1  UNL1       -0.2946
     11 C          62.7831   90.7858   10.9253 C.3     1  UNL1        0.0903
     12 C          63.7339   91.5206   11.8232 C.3     1  UNL1        0.1079
     13 H          61.4400   89.2997   11.3270 H       1  UNL1        0.1233
     14 S          66.8667   92.0051   11.8682 S.3     1  UNL1       -0.0848
     15 CL         66.9577   96.8559    8.3380 Cl      1  UNL1       -0.0822
     16 C          66.9350   95.6432    9.2206 C.ar    1  UNL1        0.0585
     17 C          66.1533   95.6617   10.5006 C.ar    1  UNL1        0.0120
     18 C          66.1305   94.4490   11.3831 C.ar    1  UNL1        0.0082
     19 C          66.8895   93.2178   10.9856 C.ar    1  UNL1        0.0401
     20 C          67.6711   93.1993    9.7056 C.ar    1  UNL1        0.0645
     21 CL         68.4302   91.9680    9.3080 Cl      1  UNL1       -0.0817
     22 C          67.6939   94.4119    8.8231 C.ar    1  UNL1        0.0233
@<TRIPOS>BOND
     1    15    16    1
     2    16    17   ar
     3    17    18   ar
     4    18    19   ar
     5    19    14    1
     6    14     1    1
     7     1     2   ar
     8     2     3   ar
     9     3     4   ar
    10     4     5   ar
    11     5     6   ar
    12     6     7    1
    13     7     8    1
    14     8     9    1
    15     9    10    1
    16    10    11    1
    17    11    12    1
    18    19    20   ar
    19    20    21    1
    20    20    22   ar
    21    22    16   ar
    22     6     1   ar
    23    12     7    1
    24    10    13    1
@<TRIPOS>MOLECULE
*****
 22 24 0 0 0
SMALL
GASTEIGER

@<TRIPOS>ATOM
      1 C          62.8989   90.3525   11.8373 C.ar    1  UNL1        0.0428
      2 C          63.0716   91.1907   10.6054 C.ar    1  UNL1        0.0077
      3 C          64.2610   92.0952   10.4743 C.ar    1  UNL1        0.0006
      4 C          65.2777   92.1615   11.5751 C.ar    1  UNL1        0.0013
      5 C          65.1050   91.3234   12.8070 C.ar    1  UNL1        0.0150
      6 C          63.9156   90.4188   12.9382 C.ar    1  UNL1        0.0540
      7 N          63.7429   89.5807   14.1701 N.pl3   1  UNL1       -0.3043
      8 C          63.1423   90.1802   15.4070 C.3     1  UNL1        0.1079
      9 C          62.9696   89.3420   16.6389 C.3     1  UNL1        0.0903
     10 N          63.3976   87.9043   16.6340 N.3     1  UNL1       -0.2946
     11 C          63.9983   87.3049   15.3971 C.3     1  UNL1        0.0903
     12 C          64.1709   88.1431   14.1651 C.3     1  UNL1        0.1079
     13 H          62.5711   87.3503   16.8582 H       1  UNL1        0.1233
     14 S          61.7095   89.4481   11.9684 S.3     1  UNL1       -0.0848
     15 CL         60.0672   85.9654    7.3668 Cl      1  UNL1       -0.0822
     16 C          60.4778   86.8361    8.5172 C.ar    1  UNL1        0.0585
     17 C          59.9941   88.2538    8.5948 C.ar    1  UNL1        0.0120
     18 C          60.4047   89.1245    9.7452 C.ar    1  UNL1        0.0082
     19 C          61.2989   88.5774   10.8180 C.ar    1  UNL1        0.0401
     20 C          61.7825   87.1597   10.7405 C.ar    1  UNL1        0.0645
     21 CL         62.6768   86.6125   11.8134 Cl      1  UNL1       -0.0817
     22 C          61.3720   86.2890    9.5901 C.ar    1  UNL1        0.0233
@<TRIPOS>BOND
     1    15    16    1
     2    16    17   ar
     3    17    18   ar
     4    18    19   ar
     5    19    14    1
     6    14     1    1
     7     1     2   ar
     8     2     3   ar
     9     3     4   ar
    10     4     5   ar
    11     5     6   ar
    12     6     7    1
    13     7     8    1
    14     8     9    1
    15     9    10    1
    16    10    11    1
    17    11    12    1
    18    19    20   ar
    19    20    21    1
    20    20    22   ar
    21    22    16   ar
    22     6     1   ar
    23    12     7    1
    24    10    13    1
@<TRIPOS>MOLECULE
*****
 22 24 0 0 0
SMALL
GASTEIGER

@<TRIPOS>ATOM
      1 C          65.3675   92.6008   11.9480 C.ar    1  UNL1        0.0428
      2 C          64.3402   92.3101   10.8943 C.ar    1  UNL1        0.0077
      3 C          63.4037   91.1502   11.0597 C.ar    1  UNL1        0.0006
      4 C          63.4944   90.2809   12.2787 C.ar    1  UNL1        0.0013
      5 C          64.5216   90.5715   13.3324 C.ar    1  UNL1        0.0150
      6 C          65.4582   91.7315   13.1671 C.ar    1  UNL1        0.0540
      7 N          66.4855   92.0221   14.2208 N.pl3   1  UNL1       -0.3043
      8 C          67.9456   91.9171   13.8939 C.3     1  UNL1        0.1079
      9 C          68.9729   92.2077   14.9476 C.3     1  UNL1        0.0903
     10 N          68.5399   92.6034   16.3282 N.3     1  UNL1       -0.2946
     11 C          67.0798   92.7084   16.6551 C.3     1  UNL1        0.0903
     12 C          66.0525   92.4178   15.6013 C.3     1  UNL1        0.1079
     13 H          68.9500   93.5186   16.5144 H       1  UNL1        0.1233
     14 S          66.3041   93.7607   11.7827 S.3     1  UNL1       -0.0848
     15 CL         66.3786   96.8466    6.6376 Cl      1  UNL1       -0.0822
     16 C          66.3600   96.0751    7.9238 C.ar    1  UNL1        0.0585
     17 C          65.5294   96.5577    9.0759 C.ar    1  UNL1        0.0120
     18 C          65.5107   95.7862   10.3621 C.ar    1  UNL1        0.0082
     19 C          66.3227   94.5322   10.4964 C.ar    1  UNL1        0.0401
     20 C          67.1533   94.0496    9.3444 C.ar    1  UNL1        0.0645
     21 CL         67.9654   92.7956    9.4786 Cl      1  UNL1       -0.0817
     22 C          67.1719   94.8211    8.0581 C.ar    1  UNL1        0.0233
@<TRIPOS>BOND
     1    15    16    1
     2    16    17   ar
     3    17    18   ar
     4    18    19   ar
     5    19    14    1
     6    14     1    1
     7     1     2   ar
     8     2     3   ar
     9     3     4   ar
    10     4     5   ar
    11     5     6   ar
    12     6     7    1
    13     7     8    1
    14     8     9    1
    15     9    10    1
    16    10    11    1
    17    11    12    1
    18    19    20   ar
    19    20    21    1
    20    20    22   ar
    21    22    16   ar
    22     6     1   ar
    23    12     7    1
    24    10    13    1
@<TRIPOS>MOLECULE
*****
 22 24 0 0 0
SMALL
GASTEIGER

@<TRIPOS>ATOM
      1 C          62.1347   88.1545   11.0960 C.ar    1  UNL1        0.0428
      2 C          61.7684   89.3163   10.2206 C.ar    1  UNL1        0.0077
      3 C          62.3811   90.6631   10.4665 C.ar    1  UNL1        0.0006
      4 C          63.3600   90.8484   11.5878 C.ar    1  UNL1        0.0013
      5 C          63.7263   89.6867   12.4632 C.ar    1  UNL1        0.0150
      6 C          63.1137   88.3397   12.2173 C.ar    1  UNL1        0.0540
      7 N          63.4800   87.1781   13.0926 N.pl3   1  UNL1       -0.3043
      8 C          64.1537   87.4159   14.4116 C.3     1  UNL1        0.1079
      9 C          64.5200   86.2543   15.2869 C.3     1  UNL1        0.0903
     10 N          64.2126   84.8547   14.8434 N.3     1  UNL1       -0.2946
     11 C          63.5389   84.6168   13.5245 C.3     1  UNL1        0.0903
     12 C          63.1726   85.7785   12.6491 C.3     1  UNL1        0.1079
     13 H          63.6125   84.4442   15.5588 H       1  UNL1        0.1233
     14 S          61.5221   86.8076   10.8500 S.3     1  UNL1       -0.0848
     15 CL         61.9179   84.2773    5.4241 Cl      1  UNL1       -0.0822
     16 C          61.8189   84.9099    6.7805 C.ar    1  UNL1        0.0585
     17 C          62.9582   84.7902    7.7488 C.ar    1  UNL1        0.0120
     18 C          62.8593   85.4227    9.1053 C.ar    1  UNL1        0.0082
     19 C          61.6210   86.1751    9.4935 C.ar    1  UNL1        0.0401
     20 C          60.4818   86.2948    8.5252 C.ar    1  UNL1        0.0645
     21 CL         59.2434   87.0472    8.9134 Cl      1  UNL1       -0.0817
     22 C          60.5807   85.6622    7.1687 C.ar    1  UNL1        0.0233
@<TRIPOS>BOND
     1    15    16    1
     2    16    17   ar
     3    17    18   ar
     4    18    19   ar
     5    19    14    1
     6    14     1    1
     7     1     2   ar
     8     2     3   ar
     9     3     4   ar
    10     4     5   ar
    11     5     6   ar
    12     6     7    1
    13     7     8    1
    14     8     9    1
    15     9    10    1
    16    10    11    1
    17    11    12    1
    18    19    20   ar
    19    20    21    1
    20    20    22   ar
    21    22    16   ar
    22     6     1   ar
    23    12     7    1
    24    10    13    1
@<TRIPOS>MOLECULE
*****
 22 24 0 0 0
SMALL
GASTEIGER

@<TRIPOS>ATOM
      1 C          61.4235   88.0820   10.2255 C.ar    1  UNL1        0.0428
      2 C          60.6237   89.1905    9.6078 C.ar    1  UNL1        0.0077
      3 C          59.7941   88.9261    8.3864 C.ar    1  UNL1        0.0006
      4 C          59.7643   87.5533    7.7826 C.ar    1  UNL1        0.0013
      5 C          60.5641   86.4448    8.4003 C.ar    1  UNL1        0.0150
      6 C          61.3937   86.7091    9.6218 C.ar    1  UNL1        0.0540
      7 N          62.1935   85.6006   10.2395 N.pl3   1  UNL1       -0.3043
      8 C          62.0669   85.3116   11.7059 C.3     1  UNL1        0.1079
      9 C          62.8667   84.2031   12.3236 C.3     1  UNL1        0.0903
     10 N          63.7931   83.3836   11.4749 N.3     1  UNL1       -0.2946
     11 C          63.9196   83.6726   10.0084 C.3     1  UNL1        0.0903
     12 C          63.1198   84.7812    9.3907 C.3     1  UNL1        0.1079
     13 H          63.4886   82.4137   11.5586 H       1  UNL1        0.1233
     14 S          62.2531   88.3463   11.4469 S.3     1  UNL1       -0.0848
     15 CL         65.5387   93.3531   11.8161 Cl      1  UNL1       -0.0822
     16 C          64.7173   92.1014   11.7238 C.ar    1  UNL1        0.0585
     17 C          63.9666   91.7882   10.4636 C.ar    1  UNL1        0.0120
     18 C          63.1452   90.5365   10.3713 C.ar    1  UNL1        0.0082
     19 C          63.0745   89.5980   11.5392 C.ar    1  UNL1        0.0401
     20 C          63.8253   89.9112   12.7994 C.ar    1  UNL1        0.0645
     21 CL         63.7546   88.9727   13.9675 Cl      1  UNL1       -0.0817
     22 C          64.6467   91.1629   12.8917 C.ar    1  UNL1        0.0233
@<TRIPOS>BOND
     1    15    16    1
     2    16    17   ar
     3    17    18   ar
     4    18    19   ar
     5    19    14    1
     6    14     1    1
     7     1     2   ar
     8     2     3   ar
     9     3     4   ar
    10     4     5   ar
    11     5     6   ar
    12     6     7    1
    13     7     8    1
    14     8     9    1
    15     9    10    1
    16    10    11    1
    17    11    12    1
    18    19    20   ar
    19    20    21    1
    20    20    22   ar
    21    22    16   ar
    22     6     1   ar
    23    12     7    1
    24    10    13    1
