@<TRIPOS>MOLECULE
*****
 29 32 0 0 0
SMALL
GASTEIGER

@<TRIPOS>ATOM
      1 C          62.9083   86.5694   12.2637 C.ar    1  UNL1        0.0799
      2 C          62.4149   85.8888   11.0215 C.ar    1  UNL1        0.0219
      3 C          62.1565   86.6896    9.7798 C.ar    1  UNL1        0.0544
      4 C          62.3914   88.1711    9.7804 C.ar    1  UNL1        0.0842
      5 N          62.8848   88.8518   11.0227 N.ar    1  UNL1       -0.2918
      6 C          63.2048   90.2864   11.3215 C.ar    1  UNL1        0.0567
      7 C          63.0889   91.4338   10.3623 C.3     1  UNL1        0.0517
      8 C          63.6611   90.3722   12.7479 C.ar    1  UNL1        0.0730
      9 C          64.0816   91.6206   13.4655 C.3     1  UNL1        0.0534
     10 N          63.6230   88.9906   13.3306 N.ar    1  UNL1       -0.2299
     11 C          63.1432   88.0509   12.2644 C.ar    1  UNL1        0.1603
     12 C          61.6631   86.0090    8.5374 C.ar    1  UNL1        0.1627
     13 N          62.4649   85.1031    7.6507 N.ar    1  UNL1       -0.2037
     14 C          61.5786   84.6491    6.5290 C.ar    1  UNL1        0.2209
     15 N          60.2289   85.2744    6.7224 N.ar    1  UNL1       -0.1452
     16 N          60.2812   86.1149    7.9637 N.ar    1  UNL1       -0.2304
     17 C          59.1500   86.9199    8.5316 C.3     1  UNL1        0.1555
     18 N          63.1668   85.7685   13.5055 N.pl3   1  UNL1       -0.3267
     19 H          62.7899   86.0604   14.3669 H       1  UNL1        0.1472
     20 C          63.9995   84.5229   13.4348 C.3     1  UNL1        0.1137
     21 C          63.6330   82.2238   12.2817 C.ar    1  UNL1       -0.0248
     22 C          62.9694   80.8789   12.2472 C.ar    1  UNL1       -0.0045
     23 C          62.0089   80.4885   13.3311 C.ar    1  UNL1       -0.0007
     24 C          61.7119   81.4428   14.4496 C.ar    1  UNL1       -0.0045
     25 C          62.3754   82.7876   14.4841 C.ar    1  UNL1       -0.0245
     26 C          62.0784   83.7420   15.6026 C.3     1  UNL1        0.0307
     27 C          63.3360   83.1781   13.4002 C.ar    1  UNL1       -0.0105
     28 C          64.0763   83.1213    9.8842 C.3     1  UNL1        0.0050
     29 C          64.5935   82.6142   11.1978 C.3     1  UNL1        0.0261
@<TRIPOS>BOND
     1    28    29    1
     2    29    21    1
     3    21    22   ar
     4    22    23   ar
     5    23    24   ar
     6    24    25   ar
     7    25    26    1
     8    25    27   ar
     9    27    20    1
    10    20    18    1
    11    18     1    1
    12     1     2   ar
    13     2     3   ar
    14     3    12    1
    15    12    13   ar
    16    13    14   ar
    17    14    15   ar
    18    15    16   ar
    19    16    17    1
    20     3     4   ar
    21     4     5   ar
    22     5     6   ar
    23     6     7    1
    24     6     8   ar
    25     8     9    1
    26     8    10   ar
    27    10    11   ar
    28    27    21   ar
    29    11     1   ar
    30    16    12   ar
    31    11     5   ar
    32    18    19    1
@<TRIPOS>MOLECULE
*****
 29 32 0 0 0
SMALL
GASTEIGER

@<TRIPOS>ATOM
      1 C          62.3849   88.9096   10.7243 C.ar    1  UNL1        0.0799
      2 C          62.7994   87.7382   11.5645 C.ar    1  UNL1        0.0219
      3 C          62.1991   86.3864   11.3148 C.ar    1  UNL1        0.0544
      4 C          61.1844   86.2060   10.2249 C.ar    1  UNL1        0.0842
      5 N          60.7699   87.3774    9.3847 N.ar    1  UNL1       -0.2918
      6 C          59.7997   87.5039    8.2478 C.ar    1  UNL1        0.0567
      7 C          58.9739   86.3951    7.6660 C.3     1  UNL1        0.0517
      8 C          59.8003   88.9339    7.7948 C.ar    1  UNL1        0.0730
      9 C          58.9751   89.5061    6.6804 C.3     1  UNL1        0.0534
     10 N          60.7709   89.6912    8.6518 N.ar    1  UNL1       -0.2299
     11 C          61.3701   88.7292    9.6344 C.ar    1  UNL1        0.1603
     12 C          62.6136   85.2149   12.1550 C.ar    1  UNL1        0.1627
     13 N          62.3974   85.0688   13.6321 N.ar    1  UNL1       -0.2037
     14 C          62.9672   83.7475   14.0555 C.ar    1  UNL1        0.2209
     15 N          63.5357   83.0769   12.8401 N.ar    1  UNL1       -0.1452
     16 N          63.3172   83.9838   11.6655 N.ar    1  UNL1       -0.2304
     17 C          63.7297   83.7081   10.2500 C.3     1  UNL1        0.1555
     18 N          62.9851   90.2615   10.9739 N.pl3   1  UNL1       -0.3267
     19 H          63.2866   90.8137   10.2167 H       1  UNL1        0.1472
     20 C          63.1260   90.7719   12.3774 C.3     1  UNL1        0.1137
     21 C          64.9837   90.6180   14.1871 C.ar    1  UNL1       -0.0248
     22 C          66.3307   91.0284   14.7042 C.ar    1  UNL1       -0.0045
     23 C          67.1667   92.0030   13.9288 C.ar    1  UNL1       -0.0007
     24 C          66.6558   92.5672   12.6363 C.ar    1  UNL1       -0.0045
     25 C          65.3089   92.1569   12.1191 C.ar    1  UNL1       -0.0245
     26 C          64.7981   92.7211   10.8266 C.3     1  UNL1        0.0307
     27 C          64.4729   91.1823   12.8945 C.ar    1  UNL1       -0.0105
     28 C          64.3512   88.1687   14.7791 C.3     1  UNL1        0.0050
     29 C          64.1477   89.6435   14.9624 C.3     1  UNL1        0.0261
@<TRIPOS>BOND
     1    28    29    1
     2    29    21    1
     3    21    22   ar
     4    22    23   ar
     5    23    24   ar
     6    24    25   ar
     7    25    26    1
     8    25    27   ar
     9    27    20    1
    10    20    18    1
    11    18     1    1
    12     1     2   ar
    13     2     3   ar
    14     3    12    1
    15    12    13   ar
    16    13    14   ar
    17    14    15   ar
    18    15    16   ar
    19    16    17    1
    20     3     4   ar
    21     4     5   ar
    22     5     6   ar
    23     6     7    1
    24     6     8   ar
    25     8     9    1
    26     8    10   ar
    27    10    11   ar
    28    27    21   ar
    29    11     1   ar
    30    16    12   ar
    31    11     5   ar
    32    18    19    1
@<TRIPOS>MOLECULE
*****
 29 32 0 0 0
SMALL
GASTEIGER

@<TRIPOS>ATOM
      1 C          63.6259   87.0508   13.5879 C.ar    1  UNL1        0.0799
      2 C          64.2859   88.2374   14.2253 C.ar    1  UNL1        0.0219
      3 C          64.1535   89.5946   13.6005 C.ar    1  UNL1        0.0544
      4 C          63.3611   89.7652   12.3383 C.ar    1  UNL1        0.0842
      5 N          62.7011   88.5785   11.7010 N.ar    1  UNL1       -0.2918
      6 C          61.8627   88.4400   10.4650 C.ar    1  UNL1        0.0567
      7 C          61.4777   89.5495    9.5319 C.3     1  UNL1        0.0517
      8 C          61.4769   86.9971   10.3258 C.ar    1  UNL1        0.0730
      9 C          60.6383   86.4105    9.2291 C.3     1  UNL1        0.0534
     10 N          62.0769   86.2439   11.4759 N.ar    1  UNL1       -0.2299
     11 C          62.8335   87.2213   12.3258 C.ar    1  UNL1        0.1603
     12 C          64.8136   90.7813   14.2378 C.ar    1  UNL1        0.1627
     13 N          65.8794   91.6358   13.6182 N.ar    1  UNL1       -0.2037
     14 C          66.2482   92.7044   14.6041 C.ar    1  UNL1        0.2209
     15 N          65.4102   92.5104   15.8331 N.ar    1  UNL1       -0.1452
     16 N          64.5236   91.3219   15.6067 N.ar    1  UNL1       -0.2304
     17 C          63.5228   90.7707   16.5785 C.3     1  UNL1        0.1555
     18 N          63.7583   85.6935   14.2127 N.pl3   1  UNL1       -0.3267
     19 H          63.4846   85.5532   15.1480 H       1  UNL1        0.1472
     20 C          64.3077   84.5498   13.4125 C.3     1  UNL1        0.1137
     21 C          63.6373   82.4199   12.0845 C.ar    1  UNL1       -0.0248
     22 C          62.8730   81.1323   11.9940 C.ar    1  UNL1       -0.0045
     23 C          62.0149   80.6873   13.1409 C.ar    1  UNL1       -0.0007
     24 C          61.9211   81.5297   14.3785 C.ar    1  UNL1       -0.0045
     25 C          62.6853   82.8172   14.4690 C.ar    1  UNL1       -0.0245
     26 C          62.5914   83.6597   15.7065 C.3     1  UNL1        0.0307
     27 C          63.5435   83.2623   13.3220 C.ar    1  UNL1       -0.0105
     28 C          63.8745   83.5580    9.7611 C.3     1  UNL1        0.0050
     29 C          64.4954   82.8649   10.9375 C.3     1  UNL1        0.0261
@<TRIPOS>BOND
     1    28    29    1
     2    29    21    1
     3    21    22   ar
     4    22    23   ar
     5    23    24   ar
     6    24    25   ar
     7    25    26    1
     8    25    27   ar
     9    27    20    1
    10    20    18    1
    11    18     1    1
    12     1     2   ar
    13     2     3   ar
    14     3    12    1
    15    12    13   ar
    16    13    14   ar
    17    14    15   ar
    18    15    16   ar
    19    16    17    1
    20     3     4   ar
    21     4     5   ar
    22     5     6   ar
    23     6     7    1
    24     6     8   ar
    25     8     9    1
    26     8    10   ar
    27    10    11   ar
    28    27    21   ar
    29    11     1   ar
    30    16    12   ar
    31    11     5   ar
    32    18    19    1
@<TRIPOS>MOLECULE
*****
 29 32 0 0 0
SMALL
GASTEIGER

@<TRIPOS>ATOM
      1 C          63.0889   87.7627   12.4606 C.ar    1  UNL1        0.0799
      2 C          62.2304   88.0429   11.2629 C.ar    1  UNL1        0.0219
      3 C          61.5425   86.9149   10.5528 C.ar    1  UNL1        0.0544
      4 C          61.7131   85.5067   11.0403 C.ar    1  UNL1        0.0842
      5 N          62.5715   85.2264   12.2380 N.ar    1  UNL1       -0.2918
      6 C          62.9240   83.9507   12.9439 C.ar    1  UNL1        0.0567
      7 C          62.4534   82.5767   12.5691 C.3     1  UNL1        0.0517
      8 C          63.8298   84.2903   14.0903 C.ar    1  UNL1        0.0730
      9 C          64.4239   83.3153   15.0633 C.3     1  UNL1        0.0534
     10 N          64.0371   85.7759   14.0929 N.ar    1  UNL1       -0.2299
     11 C          63.2595   86.3544   12.9481 C.ar    1  UNL1        0.1603
     12 C          60.6840   87.1952    9.3551 C.ar    1  UNL1        0.1627
     13 N          60.3517   86.2235    8.2617 N.ar    1  UNL1       -0.2037
     14 C          59.4694   86.9241    7.2714 C.ar    1  UNL1        0.2209
     15 N          59.2564   88.3288    7.7527 N.ar    1  UNL1       -0.1452
     16 N          60.0070   88.4963    9.0405 N.ar    1  UNL1       -0.2304
     17 C          60.0698   89.7455    9.8684 C.3     1  UNL1        0.1555
     18 N          63.7769   88.8907   13.1708 N.pl3   1  UNL1       -0.3267
     19 H          64.5178   88.7028   13.7912 H       1  UNL1        0.1472
     20 C          63.3359   90.3050   12.9356 C.3     1  UNL1        0.1137
     21 C          65.3438   91.8733   13.4442 C.ar    1  UNL1       -0.0248
     22 C          66.3359   92.9026   12.9898 C.ar    1  UNL1       -0.0045
     23 C          66.3119   93.3928   11.5724 C.ar    1  UNL1       -0.0007
     24 C          65.2960   92.8538   10.6094 C.ar    1  UNL1       -0.0045
     25 C          64.3040   91.8245   11.0638 C.ar    1  UNL1       -0.0245
     26 C          63.2881   91.2855   10.1008 C.3     1  UNL1        0.0307
     27 C          64.3279   91.3343   12.4812 C.ar    1  UNL1       -0.0105
     28 C          65.7710   92.3106   15.9693 C.3     1  UNL1        0.0050
     29 C          65.3677   91.3830   14.8616 C.3     1  UNL1        0.0261
@<TRIPOS>BOND
     1    28    29    1
     2    29    21    1
     3    21    22   ar
     4    22    23   ar
     5    23    24   ar
     6    24    25   ar
     7    25    26    1
     8    25    27   ar
     9    27    20    1
    10    20    18    1
    11    18     1    1
    12     1     2   ar
    13     2     3   ar
    14     3    12    1
    15    12    13   ar
    16    13    14   ar
    17    14    15   ar
    18    15    16   ar
    19    16    17    1
    20     3     4   ar
    21     4     5   ar
    22     5     6   ar
    23     6     7    1
    24     6     8   ar
    25     8     9    1
    26     8    10   ar
    27    10    11   ar
    28    27    21   ar
    29    11     1   ar
    30    16    12   ar
    31    11     5   ar
    32    18    19    1
@<TRIPOS>MOLECULE
*****
 29 32 0 0 0
SMALL
GASTEIGER

@<TRIPOS>ATOM
      1 C          62.4161   88.9000   10.7282 C.ar    1  UNL1        0.0799
      2 C          62.8255   87.7301   11.5729 C.ar    1  UNL1        0.0219
      3 C          62.2103   86.3826   11.3364 C.ar    1  UNL1        0.0544
      4 C          61.1858   86.2051   10.2553 C.ar    1  UNL1        0.0842
      5 N          60.7764   87.3750    9.4106 N.ar    1  UNL1       -0.2918
      6 C          59.7989   87.5036    8.2801 C.ar    1  UNL1        0.0567
      7 C          58.9581   86.3992    7.7117 C.3     1  UNL1        0.0517
      8 C          59.8100   88.9306    7.8178 C.ar    1  UNL1        0.0730
      9 C          58.9820   89.5036    6.7059 C.3     1  UNL1        0.0534
     10 N          60.7942   89.6839    8.6626 N.ar    1  UNL1       -0.2299
     11 C          61.3915   88.7225    9.6470 C.ar    1  UNL1        0.1603
     12 C          62.6197   85.2126   12.1812 C.ar    1  UNL1        0.1627
     13 N          62.3983   85.0708   13.6579 N.ar    1  UNL1       -0.2037
     14 C          62.9641   83.7496   14.0868 C.ar    1  UNL1        0.2209
     15 N          63.5354   83.0746   12.8751 N.ar    1  UNL1       -0.1452
     16 N          63.3225   83.9788   11.6974 N.ar    1  UNL1       -0.2304
     17 C          63.7393   83.6985   10.2840 C.3     1  UNL1        0.1555
     18 N          63.0312   90.2475   10.9645 N.pl3   1  UNL1       -0.3267
     19 H          63.3886   90.7652   10.2072 H       1  UNL1        0.1472
     20 C          63.1018   90.8063   12.3548 C.3     1  UNL1        0.1137
     21 C          65.3427   92.1173   12.2565 C.ar    1  UNL1       -0.0248
     22 C          66.6719   92.4647   12.8586 C.ar    1  UNL1       -0.0045
     23 C          67.0894   91.8487   14.1610 C.ar    1  UNL1       -0.0007
     24 C          66.1777   90.8852   14.8613 C.ar    1  UNL1       -0.0045
     25 C          64.8485   90.5377   14.2593 C.ar    1  UNL1       -0.0245
     26 C          63.9368   89.5742   14.9596 C.3     1  UNL1        0.0307
     27 C          64.4310   91.1538   12.9568 C.ar    1  UNL1       -0.0105
     28 C          65.7648   93.8080   10.3296 C.3     1  UNL1        0.0050
     29 C          64.9252   92.7333   10.9542 C.3     1  UNL1        0.0261
@<TRIPOS>BOND
     1    28    29    1
     2    29    21    1
     3    21    22   ar
     4    22    23   ar
     5    23    24   ar
     6    24    25   ar
     7    25    26    1
     8    25    27   ar
     9    27    20    1
    10    20    18    1
    11    18     1    1
    12     1     2   ar
    13     2     3   ar
    14     3    12    1
    15    12    13   ar
    16    13    14   ar
    17    14    15   ar
    18    15    16   ar
    19    16    17    1
    20     3     4   ar
    21     4     5   ar
    22     5     6   ar
    23     6     7    1
    24     6     8   ar
    25     8     9    1
    26     8    10   ar
    27    10    11   ar
    28    27    21   ar
    29    11     1   ar
    30    16    12   ar
    31    11     5   ar
    32    18    19    1
@<TRIPOS>MOLECULE
*****
 29 32 0 0 0
SMALL
GASTEIGER

@<TRIPOS>ATOM
      1 C          62.2738   87.2603   11.6985 C.ar    1  UNL1        0.0799
      2 C          63.1103   88.4205   12.1501 C.ar    1  UNL1        0.0219
      3 C          63.0537   89.7210   11.4048 C.ar    1  UNL1        0.0544
      4 C          62.1605   89.8612   10.2079 C.ar    1  UNL1        0.0842
      5 N          61.3240   88.7009    9.7563 N.ar    1  UNL1       -0.2918
      6 C          60.3568   88.5426    8.6208 C.ar    1  UNL1        0.0567
      7 C          59.9943   89.5975    7.6178 C.3     1  UNL1        0.0517
      8 C          59.8156   87.1443    8.6644 C.ar    1  UNL1        0.0730
      9 C          58.8169   86.5554    7.7126 C.3     1  UNL1        0.0534
     10 N          60.4483   86.4384    9.8268 N.ar    1  UNL1       -0.2299
     11 C          61.3806   87.4005   10.5016 C.ar    1  UNL1        0.1603
     12 C          63.8902   90.8813   11.8564 C.ar    1  UNL1        0.1627
     13 N          64.5984   91.8577   10.9646 N.ar    1  UNL1       -0.2037
     14 C          65.3113   92.8488   11.8361 C.ar    1  UNL1        0.2209
     15 N          65.0438   92.4850   13.2665 N.ar    1  UNL1       -0.1452
     16 N          64.1655   91.2690   13.2790 N.ar    1  UNL1       -0.2304
     17 C          63.6526   90.5645   14.4999 C.3     1  UNL1        0.1555
     18 N          62.3304   85.9598   12.4439 N.pl3   1  UNL1       -0.3267
     19 H          61.6788   85.7728   13.1578 H       1  UNL1        0.1472
     20 C          63.3798   84.9441   12.1014 C.3     1  UNL1        0.1137
     21 C          62.5938   83.0370   13.6810 C.ar    1  UNL1       -0.0248
     22 C          62.3379   81.5803   13.9316 C.ar    1  UNL1       -0.0045
     23 C          62.6122   80.5743   12.8533 C.ar    1  UNL1       -0.0007
     24 C          63.1423   81.0249   11.5244 C.ar    1  UNL1       -0.0045
     25 C          63.3982   82.4814   11.2738 C.ar    1  UNL1       -0.0245
     26 C          63.9283   82.9320    9.9449 C.3     1  UNL1        0.0307
     27 C          63.1239   83.4875   12.3521 C.ar    1  UNL1       -0.0105
     28 C          63.4393   84.5370   15.6264 C.3     1  UNL1        0.0050
     29 C          62.3195   84.0430   14.7592 C.3     1  UNL1        0.0261
@<TRIPOS>BOND
     1    28    29    1
     2    29    21    1
     3    21    22   ar
     4    22    23   ar
     5    23    24   ar
     6    24    25   ar
     7    25    26    1
     8    25    27   ar
     9    27    20    1
    10    20    18    1
    11    18     1    1
    12     1     2   ar
    13     2     3   ar
    14     3    12    1
    15    12    13   ar
    16    13    14   ar
    17    14    15   ar
    18    15    16   ar
    19    16    17    1
    20     3     4   ar
    21     4     5   ar
    22     5     6   ar
    23     6     7    1
    24     6     8   ar
    25     8     9    1
    26     8    10   ar
    27    10    11   ar
    28    27    21   ar
    29    11     1   ar
    30    16    12   ar
    31    11     5   ar
    32    18    19    1
@<TRIPOS>MOLECULE
*****
 29 32 0 0 0
SMALL
GASTEIGER

@<TRIPOS>ATOM
      1 C          63.0441   86.5840   12.5230 C.ar    1  UNL1        0.0799
      2 C          62.2109   86.1692   11.3468 C.ar    1  UNL1        0.0219
      3 C          61.7578   87.1943   10.3499 C.ar    1  UNL1        0.0544
      4 C          62.1380   88.6342   10.5292 C.ar    1  UNL1        0.0842
      5 N          62.9713   89.0490   11.7054 N.ar    1  UNL1       -0.2918
      6 C          63.4976   90.3841   12.1418 C.ar    1  UNL1        0.0567
      7 C          63.2832   91.6900   11.4355 C.3     1  UNL1        0.0517
      8 C          64.2759   90.1842   13.4084 C.ar    1  UNL1        0.0730
      9 C          64.9765   91.2551   14.1910 C.3     1  UNL1        0.0534
     10 N          64.2307   88.7255   13.7549 N.ar    1  UNL1       -0.2299
     11 C          63.4243   88.0239   12.7024 C.ar    1  UNL1        0.1603
     12 C          60.9246   86.7795    9.1735 C.ar    1  UNL1        0.1627
     13 N          59.5125   87.2050    8.8995 N.ar    1  UNL1       -0.2037
     14 C          59.0723   86.5549    7.6213 C.ar    1  UNL1        0.2209
     15 N          60.2124   85.7276    7.1054 N.ar    1  UNL1       -0.1452
     16 N          61.3571   85.8665    8.0648 N.ar    1  UNL1       -0.2304
     17 C          62.6988   85.2080    7.9376 C.3     1  UNL1        0.1555
     18 N          63.4972   85.5589   13.5200 N.pl3   1  UNL1       -0.3267
     19 H          63.2711   85.6648   14.4723 H       1  UNL1        0.1472
     20 C          64.2947   84.3724   13.0660 C.3     1  UNL1        0.1137
     21 C          63.0041   82.4065   14.1703 C.ar    1  UNL1       -0.0248
     22 C          62.3520   81.0596   14.0666 C.ar    1  UNL1       -0.0045
     23 C          62.3385   80.3318   12.7551 C.ar    1  UNL1       -0.0007
     24 C          62.9770   80.9509   11.5472 C.ar    1  UNL1       -0.0045
     25 C          63.6291   82.2977   11.6508 C.ar    1  UNL1       -0.0245
     26 C          64.2676   82.9168   10.4429 C.3     1  UNL1        0.0307
     27 C          63.6427   83.0256   12.9624 C.ar    1  UNL1       -0.0105
     28 C          61.9905   84.1902   15.7642 C.3     1  UNL1        0.0050
     29 C          63.0177   83.1342   15.4818 C.3     1  UNL1        0.0261
@<TRIPOS>BOND
     1    28    29    1
     2    29    21    1
     3    21    22   ar
     4    22    23   ar
     5    23    24   ar
     6    24    25   ar
     7    25    26    1
     8    25    27   ar
     9    27    20    1
    10    20    18    1
    11    18     1    1
    12     1     2   ar
    13     2     3   ar
    14     3    12    1
    15    12    13   ar
    16    13    14   ar
    17    14    15   ar
    18    15    16   ar
    19    16    17    1
    20     3     4   ar
    21     4     5   ar
    22     5     6   ar
    23     6     7    1
    24     6     8   ar
    25     8     9    1
    26     8    10   ar
    27    10    11   ar
    28    27    21   ar
    29    11     1   ar
    30    16    12   ar
    31    11     5   ar
    32    18    19    1
@<TRIPOS>MOLECULE
*****
 29 32 0 0 0
SMALL
GASTEIGER

@<TRIPOS>ATOM
      1 C          63.2794   90.2887   11.6001 C.ar    1  UNL1        0.0799
      2 C          63.0464   89.3946   12.7816 C.ar    1  UNL1        0.0219
      3 C          63.7751   89.6469   14.0682 C.ar    1  UNL1        0.0544
      4 C          64.7366   90.7933   14.1733 C.ar    1  UNL1        0.0842
      5 N          64.9695   91.6875   12.9917 N.ar    1  UNL1       -0.2918
      6 C          65.8506   92.8859   12.7981 C.ar    1  UNL1        0.0567
      7 C          66.7566   93.4900   13.8297 C.3     1  UNL1        0.0517
      8 C          65.6664   93.3743   11.3918 C.ar    1  UNL1        0.0730
      9 C          66.3561   94.5525   10.7702 C.3     1  UNL1        0.0534
     10 N          64.6716   92.4777   10.7162 N.ar    1  UNL1       -0.2299
     11 C          64.2409   91.4352   11.7051 C.ar    1  UNL1        0.1603
     12 C          63.5422   88.7527   15.2499 C.ar    1  UNL1        0.1627
     13 N          62.9433   89.1639   16.5623 N.ar    1  UNL1       -0.2037
     14 C          62.8982   87.9557   17.4501 C.ar    1  UNL1        0.2209
     15 N          63.4693   86.7977   16.6864 N.ar    1  UNL1       -0.1452
     16 N          63.8673   87.2904   15.3267 N.ar    1  UNL1       -0.2304
     17 C          64.4823   86.4654   14.2353 C.3     1  UNL1        0.1555
     18 N          62.5507   90.0364   10.3134 N.pl3   1  UNL1       -0.3267
     19 H          62.9780   90.2571    9.4543 H       1  UNL1        0.1472
     20 C          61.1712   89.4479   10.3356 C.3     1  UNL1        0.1137
     21 C          61.3378   86.9100    9.8057 C.ar    1  UNL1       -0.0248
     22 C          61.0061   85.7424    8.9242 C.ar    1  UNL1       -0.0045
     23 C          60.1760   85.9454    7.6915 C.ar    1  UNL1       -0.0007
     24 C          59.6777   87.3158    7.3401 C.ar    1  UNL1       -0.0045
     25 C          60.0094   88.4834    8.2214 C.ar    1  UNL1       -0.0245
     26 C          59.5110   89.8538    7.8700 C.3     1  UNL1        0.0307
     27 C          60.8395   88.2804    9.4543 C.ar    1  UNL1       -0.0105
     28 C          62.3225   85.3333   11.6208 C.3     1  UNL1        0.0050
     29 C          62.1678   86.7070   11.0385 C.3     1  UNL1        0.0261
@<TRIPOS>BOND
     1    28    29    1
     2    29    21    1
     3    21    22   ar
     4    22    23   ar
     5    23    24   ar
     6    24    25   ar
     7    25    26    1
     8    25    27   ar
     9    27    20    1
    10    20    18    1
    11    18     1    1
    12     1     2   ar
    13     2     3   ar
    14     3    12    1
    15    12    13   ar
    16    13    14   ar
    17    14    15   ar
    18    15    16   ar
    19    16    17    1
    20     3     4   ar
    21     4     5   ar
    22     5     6   ar
    23     6     7    1
    24     6     8   ar
    25     8     9    1
    26     8    10   ar
    27    10    11   ar
    28    27    21   ar
    29    11     1   ar
    30    16    12   ar
    31    11     5   ar
    32    18    19    1
@<TRIPOS>MOLECULE
*****
 29 32 0 0 0
SMALL
GASTEIGER

@<TRIPOS>ATOM
      1 C          63.2409   90.3669   11.4559 C.ar    1  UNL1        0.0799
      2 C          63.0090   89.4997   12.6575 C.ar    1  UNL1        0.0219
      3 C          63.7382   89.7813   13.9377 C.ar    1  UNL1        0.0544
      4 C          64.6994   90.9302   14.0162 C.ar    1  UNL1        0.0842
      5 N          64.9313   91.7975   12.8145 N.ar    1  UNL1       -0.2918
      6 C          65.8118   92.9916   12.5933 C.ar    1  UNL1        0.0567
      7 C          66.7182   93.6191   13.6105 C.3     1  UNL1        0.0517
      8 C          65.6267   93.4479   11.1765 C.ar    1  UNL1        0.0730
      9 C          66.3155   94.6120   10.5280 C.3     1  UNL1        0.0534
     10 N          64.6318   92.5359   10.5220 N.ar    1  UNL1       -0.2299
     11 C          64.2021   91.5158   11.5344 C.ar    1  UNL1        0.1603
     12 C          63.5064   88.9140   15.1394 C.ar    1  UNL1        0.1627
     13 N          62.9125   89.3557   16.4441 N.ar    1  UNL1       -0.2037
     14 C          62.8668   88.1674   17.3584 C.ar    1  UNL1        0.2209
     15 N          63.4324   86.9913   16.6188 N.ar    1  UNL1       -0.1452
     16 N          63.8276   87.4528   15.2474 N.ar    1  UNL1       -0.2304
     17 C          64.4372   86.6023   14.1726 C.3     1  UNL1        0.1555
     18 N          62.5116   90.0853   10.1757 N.pl3   1  UNL1       -0.3267
     19 H          62.9196   90.3279    9.3131 H       1  UNL1        0.1472
     20 C          61.1608   89.4341   10.2097 C.3     1  UNL1        0.1137
     21 C          60.1008   88.2992    8.1268 C.ar    1  UNL1       -0.0248
     22 C          59.8406   87.0687    7.3093 C.ar    1  UNL1       -0.0045
     23 C          60.3800   85.7427    7.7573 C.ar    1  UNL1       -0.0007
     24 C          61.1797   85.6472    9.0227 C.ar    1  UNL1       -0.0045
     25 C          61.4400   86.8776    9.8402 C.ar    1  UNL1       -0.0245
     26 C          62.2397   86.7821   11.1056 C.3     1  UNL1        0.0307
     27 C          60.9005   88.2037    9.3922 C.ar    1  UNL1       -0.0105
     28 C          59.2288   89.8501    6.2335 C.3     1  UNL1        0.0050
     29 C          59.5613   89.6252    7.6788 C.3     1  UNL1        0.0261
@<TRIPOS>BOND
     1    28    29    1
     2    29    21    1
     3    21    22   ar
     4    22    23   ar
     5    23    24   ar
     6    24    25   ar
     7    25    26    1
     8    25    27   ar
     9    27    20    1
    10    20    18    1
    11    18     1    1
    12     1     2   ar
    13     2     3   ar
    14     3    12    1
    15    12    13   ar
    16    13    14   ar
    17    14    15   ar
    18    15    16   ar
    19    16    17    1
    20     3     4   ar
    21     4     5   ar
    22     5     6   ar
    23     6     7    1
    24     6     8   ar
    25     8     9    1
    26     8    10   ar
    27    10    11   ar
    28    27    21   ar
    29    11     1   ar
    30    16    12   ar
    31    11     5   ar
    32    18    19    1
