@<TRIPOS>MOLECULE
*****
 27 30 0 0 0
SMALL
GASTEIGER

@<TRIPOS>ATOM
      1 C          64.8568   91.0206   13.5983 C.ar    1  UNL1        0.0070
      2 C          64.8491   89.6156   14.1235 C.ar    1  UNL1       -0.0017
      3 C          64.0055   88.5702   13.4563 C.ar    1  UNL1       -0.0002
      4 C          63.1695   88.9297   12.2639 C.ar    1  UNL1        0.0001
      5 C          62.3258   87.8841   11.5967 C.ar    1  UNL1        0.0043
      6 C          61.4898   88.2437   10.4042 C.ar    1  UNL1        0.0512
      7 C          61.4975   89.6488    9.8790 C.ar    1  UNL1        0.0021
      8 C          62.3412   90.6942   10.5463 C.ar    1  UNL1       -0.0025
      9 C          63.1772   90.3347   11.7387 C.ar    1  UNL1       -0.0005
     10 C          64.0208   91.3801   12.4059 C.ar    1  UNL1       -0.0017
     11 C          60.5776   89.7062    8.6956 C.3     1  UNL1        0.1206
     12 N          60.0014   88.3368    8.4894 N.am    1  UNL1       -0.2702
     13 C          59.0316   87.9407    7.4157 C.3     1  UNL1        0.1155
     14 C          60.5652   87.4329    9.5454 C.2     1  UNL1        0.2491
     15 O          60.2582   85.9742    9.7132 O.2     1  UNL1       -0.2699
     16 C          65.7005   92.0662   14.2656 C.3     1  UNL1        0.1410
     17 O          64.8311   91.9893   15.4855 O.3     1  UNL1       -0.3771
     18 H          64.2337   92.7532   15.5054 H       1  UNL1        0.2112
     19 C          66.5698   92.1431   13.0456 C.ar    1  UNL1        0.0825
     20 C          67.9898   91.6704   12.9436 C.ar    1  UNL1        0.1157
     21 N          68.4695   91.9414   11.5484 N.ar    1  UNL1       -0.2228
     22 C          67.3459   92.5815   10.7881 C.ar    1  UNL1        0.1749
     23 N          66.1719   92.7062   11.7134 N.ar    1  UNL1       -0.3361
     24 H          65.2943   93.0902   11.4863 H       1  UNL1        0.1673
     25 C          67.1114   92.8587   16.2981 C.3     1  UNL1        0.0031
     26 C          66.5441   93.1117   14.9327 C.3     1  UNL1        0.0340
     27 C          66.8206   94.4102   14.2345 C.3     1  UNL1        0.0031
@<TRIPOS>BOND
     1    25    26    1
     2    26    27    1
     3    26    16    1
     4    16    17    1
     5    16     1    1
     6     1     2   ar
     7     2     3   ar
     8     3     4   ar
     9     4     5   ar
    10     5     6   ar
    11     6     7   ar
    12     7     8   ar
    13     8     9   ar
    14     9    10   ar
    15     7    11    1
    16    11    12    1
    17    12    13    1
    18    12    14   am
    19    14    15    2
    20    16    19    1
    21    19    20   ar
    22    20    21   ar
    23    21    22   ar
    24    22    23   ar
    25    10     1   ar
    26    23    19   ar
    27     9     4   ar
    28    14     6    1
    29    17    18    1
    30    23    24    1
@<TRIPOS>MOLECULE
*****
 27 30 0 0 0
SMALL
GASTEIGER

@<TRIPOS>ATOM
      1 C          63.1106   83.9246   14.2355 C.ar    1  UNL1        0.0070
      2 C          63.8848   84.3456   15.4493 C.ar    1  UNL1       -0.0017
      3 C          64.3524   85.7643   15.5858 C.ar    1  UNL1       -0.0002
      4 C          64.0459   86.7620   14.5084 C.ar    1  UNL1        0.0001
      5 C          64.5136   88.1807   14.6449 C.ar    1  UNL1        0.0043
      6 C          64.2071   89.1783   13.5675 C.ar    1  UNL1        0.0512
      7 C          63.4329   88.7573   12.3536 C.ar    1  UNL1        0.0021
      8 C          62.9653   87.3386   12.2172 C.ar    1  UNL1       -0.0025
      9 C          63.2718   86.3410   13.2946 C.ar    1  UNL1       -0.0005
     10 C          62.8042   84.9223   13.1581 C.ar    1  UNL1       -0.0017
     11 C          63.2822   89.9540   11.4619 C.3     1  UNL1        0.1206
     12 N          63.9632   91.1146   12.1247 N.am    1  UNL1       -0.2702
     13 C          64.0563   92.5097   11.5814 C.3     1  UNL1        0.1155
     14 C          64.5348   90.6352   13.4260 C.2     1  UNL1        0.2491
     15 O          65.2998   91.4667   14.4126 O.2     1  UNL1       -0.2699
     16 C          62.6430   82.5059   14.0990 C.3     1  UNL1        0.1410
     17 O          62.0337   82.5750   15.4679 O.3     1  UNL1       -0.3771
     18 H          62.6038   82.1092   16.0994 H       1  UNL1        0.2112
     19 C          63.2523   82.4368   12.7301 C.ar    1  UNL1        0.0825
     20 C          64.6947   82.6744   12.3940 C.ar    1  UNL1        0.1157
     21 N          64.8600   82.5024   10.9130 N.ar    1  UNL1       -0.2228
     22 C          63.5197   82.1586   10.3338 C.ar    1  UNL1        0.1749
     23 N          62.5261   82.1180   11.4568 N.ar    1  UNL1       -0.3361
     24 H          61.5659   81.9174   11.3729 H       1  UNL1        0.1673
     25 C          60.7128   80.7674   14.0555 C.3     1  UNL1        0.0031
     26 C          62.1753   81.0872   13.9624 C.3     1  UNL1        0.0340
     27 C          63.1702   79.9884   13.7328 C.3     1  UNL1        0.0031
@<TRIPOS>BOND
     1    25    26    1
     2    26    27    1
     3    26    16    1
     4    16    17    1
     5    16     1    1
     6     1     2   ar
     7     2     3   ar
     8     3     4   ar
     9     4     5   ar
    10     5     6   ar
    11     6     7   ar
    12     7     8   ar
    13     8     9   ar
    14     9    10   ar
    15     7    11    1
    16    11    12    1
    17    12    13    1
    18    12    14   am
    19    14    15    2
    20    16    19    1
    21    19    20   ar
    22    20    21   ar
    23    21    22   ar
    24    22    23   ar
    25    10     1   ar
    26    23    19   ar
    27     9     4   ar
    28    14     6    1
    29    17    18    1
    30    23    24    1
@<TRIPOS>MOLECULE
*****
 27 30 0 0 0
SMALL
GASTEIGER

@<TRIPOS>ATOM
      1 C          62.7850   84.5736   13.2191 C.ar    1  UNL1        0.0070
      2 C          62.1704   85.0961   11.9546 C.ar    1  UNL1       -0.0017
      3 C          62.3348   86.5397   11.5815 C.ar    1  UNL1       -0.0002
      4 C          63.1139   87.4606   12.4731 C.ar    1  UNL1        0.0001
      5 C          63.2783   88.9042   12.1000 C.ar    1  UNL1        0.0043
      6 C          64.0574   89.8252   12.9915 C.ar    1  UNL1        0.0512
      7 C          64.6720   89.3026   14.2561 C.ar    1  UNL1        0.0021
      8 C          64.5076   87.8591   14.6291 C.ar    1  UNL1       -0.0025
      9 C          63.7285   86.9381   13.7376 C.ar    1  UNL1       -0.0005
     10 C          63.5641   85.4946   14.1106 C.ar    1  UNL1       -0.0017
     11 C          65.3800   90.4395   14.9315 C.3     1  UNL1        0.1206
     12 N          65.2029   91.6647   14.0844 N.am    1  UNL1       -0.2702
     13 C          65.7477   93.0299   14.3838 C.3     1  UNL1        0.1155
     14 C          64.3855   91.2850   12.8854 C.2     1  UNL1        0.2491
     15 O          63.9693   92.2038   11.7752 O.2     1  UNL1       -0.2699
     16 C          62.6206   83.1300   13.5922 C.3     1  UNL1        0.1410
     17 O          61.9891   83.5374   14.8903 O.3     1  UNL1       -0.3771
     18 H          62.6329   83.4364   15.6088 H       1  UNL1        0.2112
     19 C          63.2521   82.7227   12.2940 C.ar    1  UNL1        0.0825
     20 C          64.5664   83.2112   11.7613 C.ar    1  UNL1        0.1157
     21 N          64.8067   82.5457   10.4386 N.ar    1  UNL1       -0.2228
     22 C          63.6408   81.6458   10.1539 C.ar    1  UNL1        0.1749
     23 N          62.6800   81.7552   11.3006 N.ar    1  UNL1       -0.3361
     24 H          61.8242   81.2761   11.3861 H       1  UNL1        0.1673
     25 C          61.0838   81.1152   14.1656 C.3     1  UNL1        0.0031
     26 C          62.4562   81.6865   13.9652 C.3     1  UNL1        0.0340
     27 C          63.6643   80.8142   14.1379 C.3     1  UNL1        0.0031
@<TRIPOS>BOND
     1    25    26    1
     2    26    27    1
     3    26    16    1
     4    16    17    1
     5    16     1    1
     6     1     2   ar
     7     2     3   ar
     8     3     4   ar
     9     4     5   ar
    10     5     6   ar
    11     6     7   ar
    12     7     8   ar
    13     8     9   ar
    14     9    10   ar
    15     7    11    1
    16    11    12    1
    17    12    13    1
    18    12    14   am
    19    14    15    2
    20    16    19    1
    21    19    20   ar
    22    20    21   ar
    23    21    22   ar
    24    22    23   ar
    25    10     1   ar
    26    23    19   ar
    27     9     4   ar
    28    14     6    1
    29    17    18    1
    30    23    24    1
@<TRIPOS>MOLECULE
*****
 27 30 0 0 0
SMALL
GASTEIGER

@<TRIPOS>ATOM
      1 C          62.4212   89.3481   10.5816 C.ar    1  UNL1        0.0070
      2 C          62.5916   90.5424    9.6903 C.ar    1  UNL1       -0.0017
      3 C          63.4719   91.6787   10.1191 C.ar    1  UNL1       -0.0002
      4 C          64.1817   91.6207   11.4393 C.ar    1  UNL1        0.0001
      5 C          65.0620   92.7571   11.8681 C.ar    1  UNL1        0.0043
      6 C          65.7718   92.6990   13.1882 C.ar    1  UNL1        0.0512
      7 C          65.6013   91.5046   14.0796 C.ar    1  UNL1        0.0021
      8 C          64.7211   90.3683   13.6507 C.ar    1  UNL1       -0.0025
      9 C          64.0113   90.4263   12.3306 C.ar    1  UNL1       -0.0005
     10 C          63.1310   89.2900   11.9017 C.ar    1  UNL1       -0.0017
     11 C          66.4217   91.7276   15.3153 C.3     1  UNL1        0.1206
     12 N          67.0992   93.0598   15.1878 N.am    1  UNL1       -0.2702
     13 C          68.0173   93.6824   16.1976 C.3     1  UNL1        0.1155
     14 C          66.6975   93.6602   13.8732 C.2     1  UNL1        0.2491
     15 O          67.1433   94.9884   13.3375 O.2     1  UNL1       -0.2699
     16 C          61.5409   88.2117   10.1527 C.3     1  UNL1        0.1410
     17 O          62.6686   87.6436    9.3431 O.3     1  UNL1       -0.3771
     18 H          62.5233   87.8395    8.4042 H       1  UNL1        0.2112
     19 C          60.4133   88.7797   10.9624 C.ar    1  UNL1        0.0825
     20 C          59.8230   90.1505   10.8120 C.ar    1  UNL1        0.1157
     21 N          58.7227   90.2947   11.8214 N.ar    1  UNL1       -0.2228
     22 C          58.6329   89.0130   12.5955 C.ar    1  UNL1        0.1749
     23 N          59.6777   88.0767   12.0646 N.ar    1  UNL1       -0.3361
     24 H          59.8504   87.1615   12.3836 H       1  UNL1        0.1673
     25 C          60.9899   85.6727   10.1413 C.3     1  UNL1        0.0031
     26 C          60.6607   87.0754    9.7239 C.3     1  UNL1        0.0340
     27 C          59.4511   87.3417    8.8777 C.3     1  UNL1        0.0031
@<TRIPOS>BOND
     1    25    26    1
     2    26    27    1
     3    26    16    1
     4    16    17    1
     5    16     1    1
     6     1     2   ar
     7     2     3   ar
     8     3     4   ar
     9     4     5   ar
    10     5     6   ar
    11     6     7   ar
    12     7     8   ar
    13     8     9   ar
    14     9    10   ar
    15     7    11    1
    16    11    12    1
    17    12    13    1
    18    12    14   am
    19    14    15    2
    20    16    19    1
    21    19    20   ar
    22    20    21   ar
    23    21    22   ar
    24    22    23   ar
    25    10     1   ar
    26    23    19   ar
    27     9     4   ar
    28    14     6    1
    29    17    18    1
    30    23    24    1
@<TRIPOS>MOLECULE
*****
 27 30 0 0 0
SMALL
GASTEIGER

@<TRIPOS>ATOM
      1 C          62.5254   88.8918   11.3043 C.ar    1  UNL1        0.0070
      2 C          62.8207   87.9823   12.4599 C.ar    1  UNL1       -0.0017
      3 C          63.7662   88.4224   13.5380 C.ar    1  UNL1       -0.0002
      4 C          64.4164   89.7720   13.4605 C.ar    1  UNL1        0.0001
      5 C          65.3619   90.2120   14.5387 C.ar    1  UNL1        0.0043
      6 C          66.0120   91.5616   14.4612 C.ar    1  UNL1        0.0512
      7 C          65.7166   92.4711   13.3054 C.ar    1  UNL1        0.0021
      8 C          64.7712   92.0310   12.2273 C.ar    1  UNL1       -0.0025
      9 C          64.1210   90.6815   12.3049 C.ar    1  UNL1       -0.0005
     10 C          63.1756   90.2414   11.2267 C.ar    1  UNL1       -0.0017
     11 C          66.5015   93.7348   13.4978 C.3     1  UNL1        0.1206
     12 N          67.2820   93.6063   14.7723 N.am    1  UNL1       -0.2702
     13 C          68.2032   94.6396   15.3500 C.3     1  UNL1        0.1155
     14 C          66.9794   92.2632   15.3677 C.2     1  UNL1        0.2491
     15 O          67.5450   91.7175   16.6453 O.2     1  UNL1       -0.2699
     16 C          61.5799   88.4518   10.2261 C.3     1  UNL1        0.1410
     17 O          62.7274   87.8637    9.4597 O.3     1  UNL1       -0.3771
     18 H          62.9629   88.4538    8.7267 H       1  UNL1        0.2112
     19 C          60.4324   89.0398   10.9924 C.ar    1  UNL1        0.0825
     20 C          59.9972   90.4751   10.9651 C.ar    1  UNL1        0.1157
     21 N          58.8143   90.6182   11.8765 N.ar    1  UNL1       -0.2228
     22 C          58.5186   89.2714   12.4671 C.ar    1  UNL1        0.1749
     23 N          59.5185   88.2959   11.9207 N.ar    1  UNL1       -0.3361
     24 H          59.5667   87.3360   12.1339 H       1  UNL1        0.1673
     25 C          60.3143   86.5561    8.9793 C.3     1  UNL1        0.0031
     26 C          60.6344   88.0118    9.1480 C.3     1  UNL1        0.0340
     27 C          60.0090   89.0275    8.2384 C.3     1  UNL1        0.0031
@<TRIPOS>BOND
     1    25    26    1
     2    26    27    1
     3    26    16    1
     4    16    17    1
     5    16     1    1
     6     1     2   ar
     7     2     3   ar
     8     3     4   ar
     9     4     5   ar
    10     5     6   ar
    11     6     7   ar
    12     7     8   ar
    13     8     9   ar
    14     9    10   ar
    15     7    11    1
    16    11    12    1
    17    12    13    1
    18    12    14   am
    19    14    15    2
    20    16    19    1
    21    19    20   ar
    22    20    21   ar
    23    21    22   ar
    24    22    23   ar
    25    10     1   ar
    26    23    19   ar
    27     9     4   ar
    28    14     6    1
    29    17    18    1
    30    23    24    1
@<TRIPOS>MOLECULE
*****
 27 30 0 0 0
SMALL
GASTEIGER

@<TRIPOS>ATOM
      1 C          61.2814   89.4335   10.5986 C.ar    1  UNL1        0.0070
      2 C          60.7420   89.1703   11.9732 C.ar    1  UNL1       -0.0017
      3 C          61.4898   89.6583   13.1784 C.ar    1  UNL1       -0.0002
      4 C          62.7770   90.4095   13.0090 C.ar    1  UNL1        0.0001
      5 C          63.5249   90.8975   14.2143 C.ar    1  UNL1        0.0043
      6 C          64.8121   91.6487   14.0448 C.ar    1  UNL1        0.0512
      7 C          65.3515   91.9119   12.6700 C.ar    1  UNL1        0.0021
      8 C          64.6037   91.4239   11.4649 C.ar    1  UNL1       -0.0025
      9 C          63.3164   90.6727   11.6343 C.ar    1  UNL1       -0.0005
     10 C          62.5686   90.1847   10.4291 C.ar    1  UNL1       -0.0017
     11 C          66.6356   92.6737   12.8140 C.3     1  UNL1        0.1206
     12 N          66.8899   92.8813   14.2777 N.am    1  UNL1       -0.2702
     13 C          68.0649   93.5968   14.8757 C.3     1  UNL1        0.1155
     14 C          65.7629   92.2479   15.0383 C.2     1  UNL1        0.2491
     15 O          65.6129   92.2186   16.5305 O.2     1  UNL1       -0.2699
     16 C          60.5335   88.9455    9.3933 C.3     1  UNL1        0.1410
     17 O          59.8992   90.2960    9.2399 O.3     1  UNL1       -0.3771
     18 H          58.9857   90.2629    9.5646 H       1  UNL1        0.2112
     19 C          61.1679   87.5949    9.5466 C.ar    1  UNL1        0.0825
     20 C          60.9359   86.6349   10.6756 C.ar    1  UNL1        0.1157
     21 N          61.7703   85.4138   10.4246 N.ar    1  UNL1       -0.2228
     22 C          62.5179   85.6192    9.1404 C.ar    1  UNL1        0.1749
     23 N          62.1456   86.9671    8.5978 N.ar    1  UNL1       -0.3361
     24 H          62.4836   87.3692    7.7652 H       1  UNL1        0.1673
     25 C          59.7461   89.2910    6.9416 C.3     1  UNL1        0.0031
     26 C          59.7858   88.4574    8.1881 C.3     1  UNL1        0.0340
     27 C          59.0776   87.1357    8.2292 C.3     1  UNL1        0.0031
@<TRIPOS>BOND
     1    25    26    1
     2    26    27    1
     3    26    16    1
     4    16    17    1
     5    16     1    1
     6     1     2   ar
     7     2     3   ar
     8     3     4   ar
     9     4     5   ar
    10     5     6   ar
    11     6     7   ar
    12     7     8   ar
    13     8     9   ar
    14     9    10   ar
    15     7    11    1
    16    11    12    1
    17    12    13    1
    18    12    14   am
    19    14    15    2
    20    16    19    1
    21    19    20   ar
    22    20    21   ar
    23    21    22   ar
    24    22    23   ar
    25    10     1   ar
    26    23    19   ar
    27     9     4   ar
    28    14     6    1
    29    17    18    1
    30    23    24    1
@<TRIPOS>MOLECULE
*****
 27 30 0 0 0
SMALL
GASTEIGER

@<TRIPOS>ATOM
      1 C          61.8512   88.3400   10.0526 C.ar    1  UNL1        0.0070
      2 C          62.1203   87.9009   11.4614 C.ar    1  UNL1       -0.0017
      3 C          62.9486   88.7606   12.3696 C.ar    1  UNL1       -0.0002
      4 C          63.5078   90.0593   11.8690 C.ar    1  UNL1        0.0001
      5 C          64.3361   90.9190   12.7773 C.ar    1  UNL1        0.0043
      6 C          64.8953   92.2177   12.2767 C.ar    1  UNL1        0.0512
      7 C          64.6261   92.6568   10.8678 C.ar    1  UNL1        0.0021
      8 C          63.7978   91.7972    9.9596 C.ar    1  UNL1       -0.0025
      9 C          63.2387   90.4984   10.4602 C.ar    1  UNL1       -0.0005
     10 C          62.4104   89.6388    9.5520 C.ar    1  UNL1       -0.0017
     11 C          65.3048   93.9777   10.6563 C.3     1  UNL1        0.1206
     12 N          65.9934   94.3549   11.9344 N.am    1  UNL1       -0.2702
     13 C          66.7945   95.6011   12.1698 C.3     1  UNL1        0.1155
     14 C          65.7403   93.2672   12.9358 C.2     1  UNL1        0.2491
     15 O          66.2438   93.2347   14.3484 O.2     1  UNL1       -0.2699
     16 C          61.0229   87.4803    9.1443 C.3     1  UNL1        0.1410
     17 O          60.2503   88.6887    8.7052 O.3     1  UNL1       -0.3771
     18 H          59.3861   88.6976    9.1457 H       1  UNL1        0.2112
     19 C          61.7955   86.2720    9.5835 C.ar    1  UNL1        0.0825
     20 C          61.5142   85.4395   10.7991 C.ar    1  UNL1        0.1157
     21 N          62.5300   84.3369   10.8511 N.ar    1  UNL1       -0.2228
     22 C          63.4390   84.4880    9.6675 C.ar    1  UNL1        0.1749
     23 N          62.9851   85.6839    8.8841 N.ar    1  UNL1       -0.3361
     24 H          63.3959   86.0233    8.0562 H       1  UNL1        0.1673
     25 C          60.8496   85.5535    7.4102 C.3     1  UNL1        0.0031
     26 C          60.1946   86.6207    8.2361 C.3     1  UNL1        0.0340
     27 C          58.7112   86.8282    8.1538 C.3     1  UNL1        0.0031
@<TRIPOS>BOND
     1    25    26    1
     2    26    27    1
     3    26    16    1
     4    16    17    1
     5    16     1    1
     6     1     2   ar
     7     2     3   ar
     8     3     4   ar
     9     4     5   ar
    10     5     6   ar
    11     6     7   ar
    12     7     8   ar
    13     8     9   ar
    14     9    10   ar
    15     7    11    1
    16    11    12    1
    17    12    13    1
    18    12    14   am
    19    14    15    2
    20    16    19    1
    21    19    20   ar
    22    20    21   ar
    23    21    22   ar
    24    22    23   ar
    25    10     1   ar
    26    23    19   ar
    27     9     4   ar
    28    14     6    1
    29    17    18    1
    30    23    24    1
@<TRIPOS>MOLECULE
*****
 27 30 0 0 0
SMALL
GASTEIGER

@<TRIPOS>ATOM
      1 C          62.2276   87.4078   10.4252 C.ar    1  UNL1        0.0070
      2 C          62.5518   86.7269    9.1286 C.ar    1  UNL1       -0.0017
      3 C          62.7701   85.2432    9.0948 C.ar    1  UNL1       -0.0002
      4 C          62.6642   84.4406   10.3575 C.ar    1  UNL1        0.0001
      5 C          62.8825   82.9569   10.3236 C.ar    1  UNL1        0.0043
      6 C          62.7766   82.1542   11.5864 C.ar    1  UNL1        0.0512
      7 C          62.4523   82.8353   12.8830 C.ar    1  UNL1        0.0021
      8 C          62.2341   84.3189   12.9168 C.ar    1  UNL1       -0.0025
      9 C          62.3400   85.1215   11.6541 C.ar    1  UNL1       -0.0005
     10 C          62.1217   86.6052   11.6879 C.ar    1  UNL1       -0.0017
     11 C          62.4139   81.7903   13.9584 C.3     1  UNL1        0.1206
     12 N          62.7143   80.4635   13.3265 N.am    1  UNL1       -0.2702
     13 C          62.7792   79.1434   14.0360 C.3     1  UNL1        0.1155
     14 C          62.9385   80.6884   11.8605 C.2     1  UNL1        0.2491
     15 O          63.2668   79.6329   10.8466 O.2     1  UNL1       -0.2699
     16 C          62.0093   88.8915   10.4590 C.3     1  UNL1        0.1410
     17 O          63.1170   89.0317   11.4607 O.3     1  UNL1       -0.3771
     18 H          62.7391   89.1635   12.3443 H       1  UNL1        0.2112
     19 C          60.9016   88.7513    9.4574 C.ar    1  UNL1        0.0825
     20 C          59.8008   87.7331    9.4969 C.ar    1  UNL1        0.1157
     21 N          58.9190   87.9573    8.3042 N.ar    1  UNL1       -0.2228
     22 C          59.4749   89.1141    7.5277 C.ar    1  UNL1        0.1749
     23 N          60.7001   89.6048    8.2403 N.ar    1  UNL1       -0.3361
     24 H          61.2717   90.3553    7.9588 H       1  UNL1        0.1673
     25 C          62.8859   91.3044   10.0600 C.3     1  UNL1        0.0031
     26 C          61.7909   90.3751   10.4929 C.3     1  UNL1        0.0340
     27 C          60.4775   90.9295   10.9596 C.3     1  UNL1        0.0031
@<TRIPOS>BOND
     1    25    26    1
     2    26    27    1
     3    26    16    1
     4    16    17    1
     5    16     1    1
     6     1     2   ar
     7     2     3   ar
     8     3     4   ar
     9     4     5   ar
    10     5     6   ar
    11     6     7   ar
    12     7     8   ar
    13     8     9   ar
    14     9    10   ar
    15     7    11    1
    16    11    12    1
    17    12    13    1
    18    12    14   am
    19    14    15    2
    20    16    19    1
    21    19    20   ar
    22    20    21   ar
    23    21    22   ar
    24    22    23   ar
    25    10     1   ar
    26    23    19   ar
    27     9     4   ar
    28    14     6    1
    29    17    18    1
    30    23    24    1
@<TRIPOS>MOLECULE
*****
 27 30 0 0 0
SMALL
GASTEIGER

@<TRIPOS>ATOM
      1 C          61.8014   89.0732    9.8305 C.ar    1  UNL1        0.0070
      2 C          62.1233   90.3429    9.0997 C.ar    1  UNL1       -0.0017
      3 C          63.0202   91.3654    9.7321 C.ar    1  UNL1       -0.0002
      4 C          63.5952   91.1181   11.0953 C.ar    1  UNL1        0.0001
      5 C          64.4922   92.1407   11.7277 C.ar    1  UNL1        0.0043
      6 C          65.0672   91.8935   13.0909 C.ar    1  UNL1        0.0512
      7 C          64.7452   90.6236   13.8217 C.ar    1  UNL1        0.0021
      8 C          63.8483   89.6011   13.1892 C.ar    1  UNL1       -0.0025
      9 C          63.2733   89.8484   11.8261 C.ar    1  UNL1       -0.0005
     10 C          62.3764   88.8259   11.1936 C.ar    1  UNL1       -0.0017
     11 C          65.4540   90.6570   15.1432 C.3     1  UNL1        0.1206
     12 N          66.2139   91.9473   15.2292 N.am    1  UNL1       -0.2702
     13 C          67.0638   92.3949   16.3815 C.3     1  UNL1        0.1155
     14 C          65.9749   92.7115   13.9608 C.2     1  UNL1        0.2491
     15 O          66.5436   94.0575   13.6219 O.2     1  UNL1       -0.2699
     16 C          60.9044   88.0506    9.1981 C.3     1  UNL1        0.1410
     17 O          60.2852   89.1197    8.3475 O.3     1  UNL1       -0.3771
     18 H          59.4167   89.3572    8.7082 H       1  UNL1        0.2112
     19 C          61.5236   86.9815   10.0486 C.ar    1  UNL1        0.0825
     20 C          62.7320   86.1650    9.6975 C.ar    1  UNL1        0.1157
     21 N          62.9984   85.2200   10.8316 N.ar    1  UNL1       -0.2228
     22 C          61.9547   85.4524   11.8836 C.ar    1  UNL1        0.1749
     23 N          61.0432   86.5410   11.3997 N.ar    1  UNL1       -0.3361
     24 H          60.2661   86.9029   11.8838 H       1  UNL1        0.1673
     25 C          60.5937   85.9369    7.7196 C.3     1  UNL1        0.0031
     26 C          60.0075   87.0280    8.5657 C.3     1  UNL1        0.0340
     27 C          58.5244   87.0965    8.7794 C.3     1  UNL1        0.0031
@<TRIPOS>BOND
     1    25    26    1
     2    26    27    1
     3    26    16    1
     4    16    17    1
     5    16     1    1
     6     1     2   ar
     7     2     3   ar
     8     3     4   ar
     9     4     5   ar
    10     5     6   ar
    11     6     7   ar
    12     7     8   ar
    13     8     9   ar
    14     9    10   ar
    15     7    11    1
    16    11    12    1
    17    12    13    1
    18    12    14   am
    19    14    15    2
    20    16    19    1
    21    19    20   ar
    22    20    21   ar
    23    21    22   ar
    24    22    23   ar
    25    10     1   ar
    26    23    19   ar
    27     9     4   ar
    28    14     6    1
    29    17    18    1
    30    23    24    1
