@<TRIPOS>MOLECULE
*****
 19 20 0 0 0
SMALL
GASTEIGER

@<TRIPOS>ATOM
      1 C          64.7991   91.6423   14.4795 C.ar    1  UNL1        0.0954
      2 S          65.0561   91.6817   13.0022 S.2     1  UNL1       -0.0812
      3 C          66.2448   92.5645   12.7619 C.ar    1  UNL1        0.0309
      4 C          66.7225   93.0706   14.0907 C.ar    1  UNL1        0.0212
      5 C          65.8290   92.5007   15.1522 C.ar    1  UNL1        0.0525
      6 N          65.9450   92.7462   16.6275 N.pl3   1  UNL1       -0.3565
      7 H          66.6588   93.3284   16.9750 H       1  UNL1        0.1424
      8 H          65.3074   92.3250   17.2482 H       1  UNL1        0.1424
      9 C          66.8497   92.8848   11.4271 C.ar    1  UNL1        0.0060
     10 C          67.8836   91.9740   10.8342 C.ar    1  UNL1        0.0005
     11 C          68.4884   92.2943    9.4995 C.ar    1  UNL1        0.0000
     12 C          68.0593   93.5254    8.7576 C.ar    1  UNL1        0.0000
     13 C          67.0254   94.4362    9.3505 C.ar    1  UNL1        0.0000
     14 C          66.4206   94.1158   10.6853 C.ar    1  UNL1        0.0005
     15 N          62.7766   90.0159   14.3610 N.am    1  UNL1       -0.3249
     16 C          63.7044   90.8787   15.1640 C.2     1  UNL1        0.2500
     17 O          63.5376   90.9778   16.6513 O.2     1  UNL1       -0.2698
     18 H          62.0581   89.5146   14.8102 H       1  UNL1        0.1453
     19 H          62.8861   89.9508   13.3848 H       1  UNL1        0.1453
@<TRIPOS>BOND
     1    15    16   am
     2    16    17    2
     3    16     1    1
     4     1     2   ar
     5     2     3   ar
     6     3     9    1
     7     9    10   ar
     8    10    11   ar
     9    11    12   ar
    10    12    13   ar
    11    13    14   ar
    12     3     4   ar
    13     4     5   ar
    14     5     6    1
    15     5     1   ar
    16    14     9   ar
    17    15    18    1
    18    15    19    1
    19     6     7    1
    20     6     8    1
@<TRIPOS>MOLECULE
*****
 19 20 0 0 0
SMALL
GASTEIGER

@<TRIPOS>ATOM
      1 C          65.4326   91.8900   13.4001 C.ar    1  UNL1        0.0954
      2 S          65.3678   90.9476   14.5652 S.2     1  UNL1       -0.0812
      3 C          64.3883   89.8622   14.2296 C.ar    1  UNL1        0.0309
      4 C          63.8477   90.1339   12.8570 C.ar    1  UNL1        0.0212
      5 C          64.4931   91.3871   12.3443 C.ar    1  UNL1        0.0525
      6 N          64.2430   92.0255   11.0101 N.pl3   1  UNL1       -0.3565
      7 H          63.6042   91.6180   10.3815 H       1  UNL1        0.1424
      8 H          64.7177   92.8518   10.7631 H       1  UNL1        0.1424
      9 C          64.0149   88.7078   15.1117 C.ar    1  UNL1        0.0060
     10 C          64.3884   87.3101   14.7160 C.ar    1  UNL1        0.0005
     11 C          64.0151   86.1558   15.5981 C.ar    1  UNL1        0.0000
     12 C          63.2681   86.3993   16.8759 C.ar    1  UNL1        0.0000
     13 C          62.8946   87.7971   17.2716 C.ar    1  UNL1        0.0000
     14 C          63.2679   88.9513   16.3895 C.ar    1  UNL1        0.0005
     15 N          66.6117   93.9025   14.5445 N.am    1  UNL1       -0.3249
     16 C          66.2869   93.1195   13.3070 C.2     1  UNL1        0.2500
     17 O          66.8162   93.5659   11.9764 O.2     1  UNL1       -0.2698
     18 H          67.1724   94.7094   14.4834 H       1  UNL1        0.1453
     19 H          66.2642   93.6095   15.4178 H       1  UNL1        0.1453
@<TRIPOS>BOND
     1    15    16   am
     2    16    17    2
     3    16     1    1
     4     1     2   ar
     5     2     3   ar
     6     3     9    1
     7     9    10   ar
     8    10    11   ar
     9    11    12   ar
    10    12    13   ar
    11    13    14   ar
    12     3     4   ar
    13     4     5   ar
    14     5     6    1
    15     5     1   ar
    16    14     9   ar
    17    15    18    1
    18    15    19    1
    19     6     7    1
    20     6     8    1
@<TRIPOS>MOLECULE
*****
 19 20 0 0 0
SMALL
GASTEIGER

@<TRIPOS>ATOM
      1 C          60.5565   87.4312    8.8194 C.ar    1  UNL1        0.0954
      2 S          61.0385   86.0500    9.1508 S.2     1  UNL1       -0.0812
      3 C          62.0797   86.1674   10.2242 C.ar    1  UNL1        0.0309
      4 C          62.2412   87.6212   10.5562 C.ar    1  UNL1        0.0212
      5 C          61.2999   88.4023    9.6881 C.ar    1  UNL1        0.0525
      6 N          61.1314   89.8928    9.6885 N.pl3   1  UNL1       -0.3565
      7 H          61.6679   90.4487   10.2988 H       1  UNL1        0.1424
      8 H          60.4843   90.3153    9.0785 H       1  UNL1        0.1424
      9 C          62.8280   85.0305   10.8548 C.ar    1  UNL1        0.0060
     10 C          62.8718   84.8981   12.3482 C.ar    1  UNL1        0.0005
     11 C          63.6201   83.7613   12.9787 C.ar    1  UNL1        0.0000
     12 C          64.3246   82.7568   12.1158 C.ar    1  UNL1        0.0000
     13 C          64.2808   82.8891   10.6223 C.ar    1  UNL1        0.0000
     14 C          63.5325   84.0260    9.9918 C.ar    1  UNL1        0.0005
     15 N          58.5318   86.7416    7.3447 N.am    1  UNL1       -0.3249
     16 C          59.5142   87.7802    7.7987 C.2     1  UNL1        0.2500
     17 O          59.4544   89.1677    7.2321 O.2     1  UNL1       -0.2698
     18 H          57.8477   86.9706    6.6747 H       1  UNL1        0.1453
     19 H          58.5711   85.8309    7.7166 H       1  UNL1        0.1453
@<TRIPOS>BOND
     1    15    16   am
     2    16    17    2
     3    16     1    1
     4     1     2   ar
     5     2     3   ar
     6     3     9    1
     7     9    10   ar
     8    10    11   ar
     9    11    12   ar
    10    12    13   ar
    11    13    14   ar
    12     3     4   ar
    13     4     5   ar
    14     5     6    1
    15     5     1   ar
    16    14     9   ar
    17    15    18    1
    18    15    19    1
    19     6     7    1
    20     6     8    1
@<TRIPOS>MOLECULE
*****
 19 20 0 0 0
SMALL
GASTEIGER

@<TRIPOS>ATOM
      1 C          60.7055   88.1930   10.5684 C.ar    1  UNL1        0.0954
      2 S          61.5529   87.2185   11.3315 S.2     1  UNL1       -0.0812
      3 C          61.8382   86.0506   10.4344 C.ar    1  UNL1        0.0309
      4 C          61.1672   86.3033    9.1169 C.ar    1  UNL1        0.0212
      5 C          60.4672   87.6273    9.1997 C.ar    1  UNL1        0.0525
      6 N          59.6689   88.2725    8.1058 N.pl3   1  UNL1       -0.3565
      7 H          59.5691   87.8205    7.2370 H       1  UNL1        0.1424
      8 H          59.2448   89.1481    8.2567 H       1  UNL1        0.1424
      9 C          62.6518   84.8421   10.7921 C.ar    1  UNL1        0.0060
     10 C          62.6732   84.3444   12.2070 C.ar    1  UNL1        0.0005
     11 C          63.4867   83.1360   12.5646 C.ar    1  UNL1        0.0000
     12 C          64.2788   82.4254   11.5074 C.ar    1  UNL1        0.0000
     13 C          64.2573   82.9231   10.0926 C.ar    1  UNL1        0.0000
     14 C          63.4438   84.1315    9.7350 C.ar    1  UNL1        0.0005
     15 N          60.0958   89.7445   12.5612 N.am    1  UNL1       -0.3249
     16 C          60.1875   89.5030   11.0835 C.2     1  UNL1        0.2500
     17 O          59.7612   90.5716   10.1211 O.2     1  UNL1       -0.2698
     18 H          59.7558   90.6043   12.8992 H       1  UNL1        0.1453
     19 H          60.3756   89.0431   13.1929 H       1  UNL1        0.1453
@<TRIPOS>BOND
     1    15    16   am
     2    16    17    2
     3    16     1    1
     4     1     2   ar
     5     2     3   ar
     6     3     9    1
     7     9    10   ar
     8    10    11   ar
     9    11    12   ar
    10    12    13   ar
    11    13    14   ar
    12     3     4   ar
    13     4     5   ar
    14     5     6    1
    15     5     1   ar
    16    14     9   ar
    17    15    18    1
    18    15    19    1
    19     6     7    1
    20     6     8    1
@<TRIPOS>MOLECULE
*****
 19 20 0 0 0
SMALL
GASTEIGER

@<TRIPOS>ATOM
      1 C          63.1043   90.4059   12.0760 C.ar    1  UNL1        0.0954
      2 S          63.9675   90.4840   13.3002 S.2     1  UNL1       -0.0812
      3 C          65.0380   91.5041   13.0482 C.ar    1  UNL1        0.0309
      4 C          64.8364   92.0564   11.6683 C.ar    1  UNL1        0.0212
      5 C          63.6413   91.3777   11.0674 C.ar    1  UNL1        0.0525
      6 N          63.0814   91.6270    9.6983 N.pl3   1  UNL1       -0.3565
      7 H          63.5062   92.2886    9.1057 H       1  UNL1        0.1424
      8 H          62.2892   91.1290    9.3922 H       1  UNL1        0.1424
      9 C          66.1202   91.9020   14.0077 C.ar    1  UNL1        0.0060
     10 C          65.7694   92.3006   15.4106 C.ar    1  UNL1        0.0005
     11 C          66.8515   92.6985   16.3700 C.ar    1  UNL1        0.0000
     12 C          68.2845   92.6977   15.9267 C.ar    1  UNL1        0.0000
     13 C          68.6353   92.2991   14.5238 C.ar    1  UNL1        0.0000
     14 C          67.5532   91.9012   13.5644 C.ar    1  UNL1        0.0005
     15 N          60.6372   89.8043   12.6254 N.am    1  UNL1       -0.3249
     16 C          61.9132   89.5128   11.8926 C.2     1  UNL1        0.2500
     17 O          61.9980   88.3282   10.9764 O.2     1  UNL1       -0.2698
     18 H          59.8554   89.2182   12.5051 H       1  UNL1        0.1453
     19 H          60.5815   90.5819   13.2268 H       1  UNL1        0.1453
@<TRIPOS>BOND
     1    15    16   am
     2    16    17    2
     3    16     1    1
     4     1     2   ar
     5     2     3   ar
     6     3     9    1
     7     9    10   ar
     8    10    11   ar
     9    11    12   ar
    10    12    13   ar
    11    13    14   ar
    12     3     4   ar
    13     4     5   ar
    14     5     6    1
    15     5     1   ar
    16    14     9   ar
    17    15    18    1
    18    15    19    1
    19     6     7    1
    20     6     8    1
@<TRIPOS>MOLECULE
*****
 19 20 0 0 0
SMALL
GASTEIGER

@<TRIPOS>ATOM
      1 C          63.6722   84.2237   13.2397 C.ar    1  UNL1        0.0954
      2 S          62.7411   85.2875   12.7384 S.2     1  UNL1       -0.0812
      3 C          62.5397   85.0717   11.2677 C.ar    1  UNL1        0.0309
      4 C          63.3463   83.8746   10.8601 C.ar    1  UNL1        0.0212
      5 C          64.0463   83.3505   12.0788 C.ar    1  UNL1        0.0525
      6 N          64.9600   82.1619   12.1281 N.pl3   1  UNL1       -0.3565
      7 H          65.1453   81.6492   11.3083 H       1  UNL1        0.1424
      8 H          65.3743   81.8944   12.9802 H       1  UNL1        0.1424
      9 C          61.6821   85.9065   10.3634 C.ar    1  UNL1        0.0060
     10 C          60.8969   87.0550   10.9242 C.ar    1  UNL1        0.0005
     11 C          60.0394   87.8898   10.0199 C.ar    1  UNL1        0.0000
     12 C          59.9670   87.5761    8.5549 C.ar    1  UNL1        0.0000
     13 C          60.7522   86.4276    7.9941 C.ar    1  UNL1        0.0000
     14 C          61.6097   85.5928    8.8984 C.ar    1  UNL1        0.0005
     15 N          64.6796   85.2445   15.4061 N.am    1  UNL1       -0.3249
     16 C          64.1461   84.0616   14.6536 C.2     1  UNL1        0.2500
     17 O          64.0865   82.7166   15.3151 O.2     1  UNL1       -0.2698
     18 H          64.9907   85.1381   16.3341 H       1  UNL1        0.1453
     19 H          64.7188   86.1272   14.9720 H       1  UNL1        0.1453
@<TRIPOS>BOND
     1    15    16   am
     2    16    17    2
     3    16     1    1
     4     1     2   ar
     5     2     3   ar
     6     3     9    1
     7     9    10   ar
     8    10    11   ar
     9    11    12   ar
    10    12    13   ar
    11    13    14   ar
    12     3     4   ar
    13     4     5   ar
    14     5     6    1
    15     5     1   ar
    16    14     9   ar
    17    15    18    1
    18    15    19    1
    19     6     7    1
    20     6     8    1
@<TRIPOS>MOLECULE
*****
 19 20 0 0 0
SMALL
GASTEIGER

@<TRIPOS>ATOM
      1 C          63.2422   82.7656   13.0729 C.ar    1  UNL1        0.0954
      2 S          62.6875   83.5619   11.9291 S.2     1  UNL1       -0.0812
      3 C          62.8381   85.0169   12.2610 C.ar    1  UNL1        0.0309
      4 C          63.4860   85.1200   13.6099 C.ar    1  UNL1        0.0212
      5 C          63.7358   83.7286   14.1117 C.ar    1  UNL1        0.0525
      6 N          64.3681   83.3642   15.4222 N.pl3   1  UNL1       -0.3565
      7 H          64.6612   84.0717   16.0409 H       1  UNL1        0.1424
      8 H          64.4899   82.4176   15.6636 H       1  UNL1        0.1424
      9 C          62.4151   86.1670   11.3958 C.ar    1  UNL1        0.0060
     10 C          62.7895   87.5689   11.7760 C.ar    1  UNL1        0.0005
     11 C          62.3665   88.7189   10.9108 C.ar    1  UNL1        0.0000
     12 C          61.5692   88.4670    9.6655 C.ar    1  UNL1        0.0000
     13 C          61.1948   87.0651    9.2854 C.ar    1  UNL1        0.0000
     14 C          61.6178   85.9151   10.1505 C.ar    1  UNL1        0.0005
     15 N          62.7767   80.4318   12.0303 N.am    1  UNL1       -0.3249
     16 C          63.2943   81.2692   13.1621 C.2     1  UNL1        0.2500
     17 O          63.8640   80.6101   14.3832 O.2     1  UNL1       -0.2698
     18 H          62.8109   79.4497   12.0889 H       1  UNL1        0.1453
     19 H          62.4028   80.8644   11.2289 H       1  UNL1        0.1453
@<TRIPOS>BOND
     1    15    16   am
     2    16    17    2
     3    16     1    1
     4     1     2   ar
     5     2     3   ar
     6     3     9    1
     7     9    10   ar
     8    10    11   ar
     9    11    12   ar
    10    12    13   ar
    11    13    14   ar
    12     3     4   ar
    13     4     5   ar
    14     5     6    1
    15     5     1   ar
    16    14     9   ar
    17    15    18    1
    18    15    19    1
    19     6     7    1
    20     6     8    1
@<TRIPOS>MOLECULE
*****
 19 20 0 0 0
SMALL
GASTEIGER

@<TRIPOS>ATOM
      1 C          65.6712   92.4100   13.4416 C.ar    1  UNL1        0.0954
      2 S          64.6826   91.2852   13.3555 S.2     1  UNL1       -0.0812
      3 C          64.1990   91.2005   11.9382 C.ar    1  UNL1        0.0309
      4 C          64.8887   92.2730   11.1482 C.ar    1  UNL1        0.0212
      5 C          65.7986   93.0206   12.0773 C.ar    1  UNL1        0.0525
      6 N          66.6809   94.1758   11.7072 N.pl3   1  UNL1       -0.3565
      7 H          66.6955   94.5068   10.7802 H       1  UNL1        0.1424
      8 H          67.2454   94.6030   12.3914 H       1  UNL1        0.1424
      9 C          63.2008   90.2161   11.4045 C.ar    1  UNL1        0.0060
     10 C          62.2821   90.6110   10.2865 C.ar    1  UNL1        0.0005
     11 C          61.2840   89.6266    9.7529 C.ar    1  UNL1        0.0000
     12 C          61.2047   88.2474   10.3372 C.ar    1  UNL1        0.0000
     13 C          62.1234   87.8526   11.4552 C.ar    1  UNL1        0.0000
     14 C          63.1215   88.8369   11.9888 C.ar    1  UNL1        0.0005
     15 N          65.7731   92.6705   16.0246 N.am    1  UNL1       -0.3249
     16 C          66.4039   92.8475   14.6752 C.2     1  UNL1        0.2500
     17 O          67.7673   93.4620   14.5594 O.2     1  UNL1       -0.2698
     18 H          66.2539   92.9577   16.8342 H       1  UNL1        0.1453
     19 H          64.8782   92.2672   16.1005 H       1  UNL1        0.1453
@<TRIPOS>BOND
     1    15    16   am
     2    16    17    2
     3    16     1    1
     4     1     2   ar
     5     2     3   ar
     6     3     9    1
     7     9    10   ar
     8    10    11   ar
     9    11    12   ar
    10    12    13   ar
    11    13    14   ar
    12     3     4   ar
    13     4     5   ar
    14     5     6    1
    15     5     1   ar
    16    14     9   ar
    17    15    18    1
    18    15    19    1
    19     6     7    1
    20     6     8    1
@<TRIPOS>MOLECULE
*****
 19 20 0 0 0
SMALL
GASTEIGER

@<TRIPOS>ATOM
      1 C          63.6485   84.3717   13.1088 C.ar    1  UNL1        0.0954
      2 S          62.8623   85.5830   12.7029 S.2     1  UNL1       -0.0812
      3 C          62.6119   85.4997   11.2263 C.ar    1  UNL1        0.0309
      4 C          63.2432   84.2369   10.7196 C.ar    1  UNL1        0.0212
      5 C          63.8839   83.5397   11.8830 C.ar    1  UNL1        0.0525
      6 N          64.6291   82.2390   11.8300 N.pl3   1  UNL1       -0.3565
      7 H          64.7313   81.7648   10.9733 H       1  UNL1        0.1424
      8 H          65.0160   81.8595   12.6519 H       1  UNL1        0.1424
      9 C          61.8617   86.5031   10.4013 C.ar    1  UNL1        0.0060
     10 C          60.9134   86.0392    9.3358 C.ar    1  UNL1        0.0005
     11 C          60.1633   87.0425    8.5108 C.ar    1  UNL1        0.0000
     12 C          60.3616   88.5098    8.7514 C.ar    1  UNL1        0.0000
     13 C          61.3099   88.9737    9.8169 C.ar    1  UNL1        0.0000
     14 C          62.0600   87.9703   10.6419 C.ar    1  UNL1        0.0005
     15 N          64.7499   85.1147   15.3415 N.am    1  UNL1       -0.3249
     16 C          64.1170   84.0490   14.4968 C.2     1  UNL1        0.2500
     17 O          63.9525   82.6605   15.0400 O.2     1  UNL1       -0.2698
     18 H          65.0574   84.9029   16.2524 H       1  UNL1        0.1453
     19 H          64.8579   86.0260   14.9849 H       1  UNL1        0.1453
@<TRIPOS>BOND
     1    15    16   am
     2    16    17    2
     3    16     1    1
     4     1     2   ar
     5     2     3   ar
     6     3     9    1
     7     9    10   ar
     8    10    11   ar
     9    11    12   ar
    10    12    13   ar
    11    13    14   ar
    12     3     4   ar
    13     4     5   ar
    14     5     6    1
    15     5     1   ar
    16    14     9   ar
    17    15    18    1
    18    15    19    1
    19     6     7    1
    20     6     8    1
