@<TRIPOS>MOLECULE
*****
 25 27 0 0 0
SMALL
GASTEIGER

@<TRIPOS>ATOM
      1 C          63.8838   89.5790   13.1157 C.ar    1  UNL1        0.1724
      2 C          64.3205   88.6541   14.2129 C.ar    1  UNL1        0.0400
      3 C          63.9601   87.1991   14.1552 C.ar    1  UNL1        0.0032
      4 C          64.3968   86.2742   15.2523 C.ar    1  UNL1       -0.0001
      5 C          64.0364   84.8193   15.1946 C.ar    1  UNL1       -0.0017
      6 C          63.2395   84.2893   14.0396 C.ar    1  UNL1        0.0054
      7 C          62.8028   85.2142   12.9424 C.ar    1  UNL1       -0.0016
      8 C          63.1631   86.6691   13.0002 C.ar    1  UNL1        0.0030
      9 C          62.7265   87.5941   11.9030 C.ar    1  UNL1        0.0400
     10 C          63.0868   89.0490   11.9608 C.ar    1  UNL1        0.1724
     11 C          62.8791   82.8343   13.9819 C.3     1  UNL1        0.1253
     12 O          62.3509   82.9095   15.3837 O.3     1  UNL1       -0.3788
     13 H          62.4566   83.8127   15.7211 H       1  UNL1        0.2111
     14 C          63.4074   82.7592   12.5800 C.2     1  UNL1        0.0304
     15 C          64.8148   83.0517   12.1513 C.2     1  UNL1        0.1177
     16 N          64.8982   82.8516   10.6670 N.2     1  UNL1       -0.1513
     17 N          63.5424   82.4354   10.1784 N.2     1  UNL1       -0.1698
     18 C          62.6211   82.3783   11.3607 C.3     1  UNL1        0.1754
     19 C          62.5188   81.3794   13.9241 C.3     1  UNL1        0.0323
     20 C          61.0879   80.9546   14.0728 C.3     1  UNL1        0.0031
     21 C          63.5894   80.3492   13.7176 C.3     1  UNL1        0.0031
     22 C          65.4649   91.4751   13.9252 C.3     1  UNL1        0.2526
     23 O          64.2441   91.0340   13.1734 O.3     1  UNL1       -0.4684
     24 O          62.6501   89.9740   10.8635 O.3     1  UNL1       -0.4684
     25 C          61.2047   90.0388   10.4681 C.3     1  UNL1        0.2526
@<TRIPOS>BOND
     1    22    23    1
     2    23     1    1
     3     1     2   ar
     4     2     3   ar
     5     3     4   ar
     6     4     5   ar
     7     5     6   ar
     8     6    11    1
     9    11    12    1
    10    11    14    1
    11    14    15    2
    12    15    16    1
    13    16    17    2
    14    17    18    1
    15    11    19    1
    16    19    20    1
    17    19    21    1
    18     6     7   ar
    19     7     8   ar
    20     8     9   ar
    21     9    10   ar
    22    10    24    1
    23    24    25    1
    24    10     1   ar
    25     8     3   ar
    26    18    14    1
    27    12    13    1
@<TRIPOS>MOLECULE
*****
 25 27 0 0 0
SMALL
GASTEIGER

@<TRIPOS>ATOM
      1 C          63.7983   90.1121   12.7603 C.ar    1  UNL1        0.1724
      2 C          63.0915   89.1183   11.8869 C.ar    1  UNL1        0.0400
      3 C          63.0138   87.6784   12.3001 C.ar    1  UNL1        0.0032
      4 C          62.3070   86.6846   11.4267 C.ar    1  UNL1       -0.0001
      5 C          62.2293   85.2448   11.8399 C.ar    1  UNL1       -0.0017
      6 C          62.8584   84.7987   13.1265 C.ar    1  UNL1        0.0054
      7 C          63.5651   85.7925   13.9998 C.ar    1  UNL1       -0.0016
      8 C          63.6428   87.2323   13.5866 C.ar    1  UNL1        0.0030
      9 C          64.3496   88.2262   14.4600 C.ar    1  UNL1        0.0400
     10 C          64.4273   89.6660   14.0468 C.ar    1  UNL1        0.1724
     11 C          62.7806   83.3588   13.5396 C.3     1  UNL1        0.1253
     12 O          62.1892   83.7683   14.8558 O.3     1  UNL1       -0.3788
     13 H          62.1091   84.7345   14.8877 H       1  UNL1        0.2111
     14 C          63.3721   82.9492   12.2234 C.2     1  UNL1        0.0304
     15 C          64.6721   83.4328   11.6523 C.2     1  UNL1        0.1177
     16 N          64.8708   82.7666   10.3231 N.2     1  UNL1       -0.1513
     17 N          63.6936   81.8712   10.0727 N.2     1  UNL1       -0.1698
     18 C          62.7673   81.9841   11.2472 C.3     1  UNL1        0.1754
     19 C          62.7029   81.9189   13.9528 C.3     1  UNL1        0.0323
     20 C          61.3695   81.2868   14.2221 C.3     1  UNL1        0.0031
     21 C          63.9586   81.1110   14.0965 C.3     1  UNL1        0.0031
     22 C          64.6215   91.9362   11.1035 C.3     1  UNL1        0.2526
     23 O          63.8760   91.5520   12.3471 O.3     1  UNL1       -0.4684
     24 O          65.1341   90.6599   14.9202 O.3     1  UNL1       -0.4684
     25 C          66.4423   91.2478   14.4807 C.3     1  UNL1        0.2526
@<TRIPOS>BOND
     1    22    23    1
     2    23     1    1
     3     1     2   ar
     4     2     3   ar
     5     3     4   ar
     6     4     5   ar
     7     5     6   ar
     8     6    11    1
     9    11    12    1
    10    11    14    1
    11    14    15    2
    12    15    16    1
    13    16    17    2
    14    17    18    1
    15    11    19    1
    16    19    20    1
    17    19    21    1
    18     6     7   ar
    19     7     8   ar
    20     8     9   ar
    21     9    10   ar
    22    10    24    1
    23    24    25    1
    24    10     1   ar
    25     8     3   ar
    26    18    14    1
    27    12    13    1
@<TRIPOS>MOLECULE
*****
 25 27 0 0 0
SMALL
GASTEIGER

@<TRIPOS>ATOM
      1 C          64.6769   91.3161   14.4629 C.ar    1  UNL1        0.1724
      2 C          64.6963   91.5977   12.9897 C.ar    1  UNL1        0.0400
      3 C          63.7117   90.9198   12.0835 C.ar    1  UNL1        0.0032
      4 C          63.7311   91.2014   10.6103 C.ar    1  UNL1       -0.0001
      5 C          62.7466   90.5235    9.7042 C.ar    1  UNL1       -0.0017
      6 C          61.7426   89.5640   10.2713 C.ar    1  UNL1        0.0054
      7 C          61.7232   89.2824   11.7444 C.ar    1  UNL1       -0.0016
      8 C          62.7078   89.9603   12.6506 C.ar    1  UNL1        0.0030
      9 C          62.6884   89.6787   14.1238 C.ar    1  UNL1        0.0400
     10 C          63.6730   90.3566   15.0299 C.ar    1  UNL1        0.1724
     11 C          60.7580   88.8861    9.3651 C.3     1  UNL1        0.1253
     12 O          60.1693   90.2187    9.0078 O.3     1  UNL1       -0.3788
     13 H          60.6427   90.9192    9.4833 H       1  UNL1        0.2111
     14 C          61.3468   87.5536    9.7223 C.2     1  UNL1        0.0304
     15 C          62.3808   86.8064    8.9333 C.2     1  UNL1        0.1177
     16 N          62.6780   85.5252    9.6547 N.2     1  UNL1       -0.1513
     17 N          61.8275   85.4806   10.8896 N.2     1  UNL1       -0.1698
     18 C          61.0048   86.7341   10.9314 C.3     1  UNL1        0.1754
     19 C          59.7735   88.2082    8.4589 C.3     1  UNL1        0.0323
     20 C          59.4227   88.8248    7.1373 C.3     1  UNL1        0.0031
     21 C          59.1398   86.9136    8.8744 C.3     1  UNL1        0.0031
     22 C          66.5157   93.1110   14.8469 C.3     1  UNL1        0.2526
     23 O          65.6615   91.9940   15.3691 O.3     1  UNL1       -0.4684
     24 O          63.6536   90.0751   16.5032 O.3     1  UNL1       -0.4684
     25 C          63.0911   88.7810   17.0121 C.3     1  UNL1        0.2526
@<TRIPOS>BOND
     1    22    23    1
     2    23     1    1
     3     1     2   ar
     4     2     3   ar
     5     3     4   ar
     6     4     5   ar
     7     5     6   ar
     8     6    11    1
     9    11    12    1
    10    11    14    1
    11    14    15    2
    12    15    16    1
    13    16    17    2
    14    17    18    1
    15    11    19    1
    16    19    20    1
    17    19    21    1
    18     6     7   ar
    19     7     8   ar
    20     8     9   ar
    21     9    10   ar
    22    10    24    1
    23    24    25    1
    24    10     1   ar
    25     8     3   ar
    26    18    14    1
    27    12    13    1
@<TRIPOS>MOLECULE
*****
 25 27 0 0 0
SMALL
GASTEIGER

@<TRIPOS>ATOM
      1 C          61.7916   87.9624   11.2588 C.ar    1  UNL1        0.1724
      2 C          62.6060   88.5871   12.3526 C.ar    1  UNL1        0.0400
      3 C          63.3691   89.8517   12.0909 C.ar    1  UNL1        0.0032
      4 C          64.1835   90.4763   13.1847 C.ar    1  UNL1       -0.0001
      5 C          64.9465   91.7409   12.9229 C.ar    1  UNL1       -0.0017
      6 C          64.8950   92.3809   11.5673 C.ar    1  UNL1        0.0054
      7 C          64.0806   91.7563   10.4734 C.ar    1  UNL1       -0.0016
      8 C          63.3176   90.4917   10.7352 C.ar    1  UNL1        0.0030
      9 C          62.5032   89.8670    9.6414 C.ar    1  UNL1        0.0400
     10 C          61.7402   88.6024    9.9032 C.ar    1  UNL1        0.1724
     11 C          65.6581   93.6456   11.3055 C.3     1  UNL1        0.1253
     12 O          64.6392   94.0484   10.2811 O.3     1  UNL1       -0.3788
     13 H          63.9543   93.3642   10.2198 H       1  UNL1        0.2111
     14 C          66.6770   93.2428   12.3299 C.2     1  UNL1        0.0304
     15 C          66.7807   93.7770   13.7278 C.2     1  UNL1        0.1177
     16 N          67.9390   93.0994   14.3982 N.2     1  UNL1       -0.1513
     17 N          68.5511   92.1465   13.4146 N.2     1  UNL1       -0.1698
     18 C          67.7712   92.2351   12.1364 C.3     1  UNL1        0.1754
     19 C          66.4211   94.9102   11.0438 C.3     1  UNL1        0.0323
     20 C          66.1289   96.1425   11.8476 C.3     1  UNL1        0.0031
     21 C          67.4764   94.9426    9.9782 C.3     1  UNL1        0.0031
     22 C          61.7422   85.3785   11.5248 C.3     1  UNL1        0.2526
     23 O          61.0286   86.6978   11.5206 O.3     1  UNL1       -0.4684
     24 O          60.9257   87.9778    8.8093 O.3     1  UNL1       -0.4684
     25 C          59.7594   88.7190    8.2260 C.3     1  UNL1        0.2526
@<TRIPOS>BOND
     1    22    23    1
     2    23     1    1
     3     1     2   ar
     4     2     3   ar
     5     3     4   ar
     6     4     5   ar
     7     5     6   ar
     8     6    11    1
     9    11    12    1
    10    11    14    1
    11    14    15    2
    12    15    16    1
    13    16    17    2
    14    17    18    1
    15    11    19    1
    16    19    20    1
    17    19    21    1
    18     6     7   ar
    19     7     8   ar
    20     8     9   ar
    21     9    10   ar
    22    10    24    1
    23    24    25    1
    24    10     1   ar
    25     8     3   ar
    26    18    14    1
    27    12    13    1
@<TRIPOS>MOLECULE
*****
 25 27 0 0 0
SMALL
GASTEIGER

@<TRIPOS>ATOM
      1 C          63.2261   81.8694   11.2182 C.ar    1  UNL1        0.1724
      2 C          63.3184   82.7526   10.0094 C.ar    1  UNL1        0.0400
      3 C          62.9368   84.2000   10.1071 C.ar    1  UNL1        0.0032
      4 C          63.0291   85.0833    8.8983 C.ar    1  UNL1       -0.0001
      5 C          62.6475   86.5306    8.9961 C.ar    1  UNL1       -0.0017
      6 C          62.1737   87.0947   10.3027 C.ar    1  UNL1        0.0054
      7 C          62.0814   86.2115   11.5116 C.ar    1  UNL1       -0.0016
      8 C          62.4630   84.7641   11.4138 C.ar    1  UNL1        0.0030
      9 C          62.3707   83.8808   12.6226 C.ar    1  UNL1        0.0400
     10 C          62.7523   82.4335   12.5248 C.ar    1  UNL1        0.1724
     11 C          61.7921   88.5421   10.4005 C.3     1  UNL1        0.1253
     12 O          62.8913   88.7647   11.3965 O.3     1  UNL1       -0.3788
     13 H          63.3609   87.9302   11.5517 H       1  UNL1        0.2111
     14 C          60.6929   88.3195    9.4044 C.2     1  UNL1        0.0304
     15 C          60.4016   89.1748    8.2070 C.2     1  UNL1        0.1177
     16 N          59.2206   88.5864    7.4934 N.2     1  UNL1       -0.1513
     17 N          58.7820   87.3675    8.2498 N.2     1  UNL1       -0.1698
     18 C          59.6919   87.2026    9.4308 C.3     1  UNL1        0.1754
     19 C          61.4105   89.9894   10.4982 C.3     1  UNL1        0.0323
     20 C          62.4096   91.0535   10.1526 C.3     1  UNL1        0.0031
     21 C          60.0297   90.3727   10.9416 C.3     1  UNL1        0.0031
     22 C          62.9993   79.5561   10.0575 C.3     1  UNL1        0.2526
     23 O          63.6077   80.4220   11.1205 O.3     1  UNL1       -0.4684
     24 O          62.6601   81.5502   13.7337 O.3     1  UNL1       -0.4684
     25 C          61.3294   81.0128   14.1702 C.3     1  UNL1        0.2526
@<TRIPOS>BOND
     1    22    23    1
     2    23     1    1
     3     1     2   ar
     4     2     3   ar
     5     3     4   ar
     6     4     5   ar
     7     5     6   ar
     8     6    11    1
     9    11    12    1
    10    11    14    1
    11    14    15    2
    12    15    16    1
    13    16    17    2
    14    17    18    1
    15    11    19    1
    16    19    20    1
    17    19    21    1
    18     6     7   ar
    19     7     8   ar
    20     8     9   ar
    21     9    10   ar
    22    10    24    1
    23    24    25    1
    24    10     1   ar
    25     8     3   ar
    26    18    14    1
    27    12    13    1
@<TRIPOS>MOLECULE
*****
 25 27 0 0 0
SMALL
GASTEIGER

@<TRIPOS>ATOM
      1 C          61.0238   88.2286    9.3025 C.ar    1  UNL1        0.1724
      2 C          61.8967   87.1144    8.8059 C.ar    1  UNL1        0.0400
      3 C          62.2179   85.9563    9.7035 C.ar    1  UNL1        0.0032
      4 C          63.0908   84.8421    9.2069 C.ar    1  UNL1       -0.0001
      5 C          63.4119   83.6840   10.1044 C.ar    1  UNL1       -0.0017
      6 C          62.8603   83.6402   11.4986 C.ar    1  UNL1        0.0054
      7 C          61.9874   84.7543   11.9952 C.ar    1  UNL1       -0.0016
      8 C          61.6662   85.9124   11.0976 C.ar    1  UNL1        0.0030
      9 C          60.7933   87.0267   11.5942 C.ar    1  UNL1        0.0400
     10 C          60.4721   88.1847   10.6966 C.ar    1  UNL1        0.1724
     11 C          63.1815   82.4820   12.3962 C.3     1  UNL1        0.1253
     12 O          62.9770   81.5367   11.2497 O.3     1  UNL1       -0.3788
     13 H          62.7371   82.0390   10.4553 H       1  UNL1        0.2111
     14 C          63.3860   83.4274   13.5427 C.2     1  UNL1        0.0304
     15 C          62.4811   83.5836   14.7288 C.2     1  UNL1        0.1177
     16 N          63.0672   84.6353   15.6236 N.2     1  UNL1       -0.1513
     17 N          64.3342   85.1291   14.9904 N.2     1  UNL1       -0.1698
     18 C          64.5313   84.3825   13.7044 C.3     1  UNL1        0.1754
     19 C          63.5027   81.3240   13.2938 C.3     1  UNL1        0.0323
     20 C          64.8882   81.1650   13.8463 C.3     1  UNL1        0.0031
     21 C          62.4385   80.3248   13.6389 C.3     1  UNL1        0.0031
     22 C          59.6195   89.2595    7.3750 C.3     1  UNL1        0.2526
     23 O          60.7026   89.3867    8.4049 O.3     1  UNL1       -0.4684
     24 O          59.5992   89.2990   11.1932 O.3     1  UNL1       -0.4684
     25 C          58.9200   89.1827   12.5256 C.3     1  UNL1        0.2526
@<TRIPOS>BOND
     1    22    23    1
     2    23     1    1
     3     1     2   ar
     4     2     3   ar
     5     3     4   ar
     6     4     5   ar
     7     5     6   ar
     8     6    11    1
     9    11    12    1
    10    11    14    1
    11    14    15    2
    12    15    16    1
    13    16    17    2
    14    17    18    1
    15    11    19    1
    16    19    20    1
    17    19    21    1
    18     6     7   ar
    19     7     8   ar
    20     8     9   ar
    21     9    10   ar
    22    10    24    1
    23    24    25    1
    24    10     1   ar
    25     8     3   ar
    26    18    14    1
    27    12    13    1
@<TRIPOS>MOLECULE
*****
 25 27 0 0 0
SMALL
GASTEIGER

@<TRIPOS>ATOM
      1 C          61.8030   88.0235   11.0052 C.ar    1  UNL1        0.1724
      2 C          62.5992   87.9091   12.2712 C.ar    1  UNL1        0.0400
      3 C          63.4470   89.0582   12.7305 C.ar    1  UNL1        0.0032
      4 C          64.2433   88.9438   13.9965 C.ar    1  UNL1       -0.0001
      5 C          65.0910   90.0928   14.4557 C.ar    1  UNL1       -0.0017
      6 C          65.1425   91.3563   13.6490 C.ar    1  UNL1        0.0054
      7 C          64.3463   91.4708   12.3829 C.ar    1  UNL1       -0.0016
      8 C          63.4985   90.3217   11.9237 C.ar    1  UNL1        0.0030
      9 C          62.7022   90.4361   10.6576 C.ar    1  UNL1        0.0400
     10 C          61.8545   89.2870   10.1984 C.ar    1  UNL1        0.1724
     11 C          65.9903   92.5054   14.1083 C.3     1  UNL1        0.1253
     12 O          65.1576   92.6234   15.3503 O.3     1  UNL1       -0.3788
     13 H          64.4612   91.9483   15.3380 H       1  UNL1        0.2111
     14 C          66.8230   92.3875   12.8662 C.2     1  UNL1        0.0304
     15 C          68.1465   91.6905   12.7550 C.2     1  UNL1        0.1177
     16 N          68.6199   91.8180   11.3373 N.2     1  UNL1       -0.1513
     17 N          67.5888   92.5939   10.5724 N.2     1  UNL1       -0.1698
     18 C          66.4783   92.9459   11.5173 C.3     1  UNL1        0.1754
     19 C          66.8381   93.6545   14.5675 C.3     1  UNL1        0.0323
     20 C          67.7243   93.5000   15.7678 C.3     1  UNL1        0.0031
     21 C          66.7996   94.9582   13.8265 C.3     1  UNL1        0.0031
     22 C          61.5862   85.5438   10.2607 C.3     1  UNL1        0.2526
     23 O          60.9552   86.8744   10.5459 O.3     1  UNL1       -0.4684
     24 O          61.0582   89.4014    8.9323 O.3     1  UNL1       -0.4684
     25 C          59.7609   88.6615    8.7928 C.3     1  UNL1        0.2526
@<TRIPOS>BOND
     1    22    23    1
     2    23     1    1
     3     1     2   ar
     4     2     3   ar
     5     3     4   ar
     6     4     5   ar
     7     5     6   ar
     8     6    11    1
     9    11    12    1
    10    11    14    1
    11    14    15    2
    12    15    16    1
    13    16    17    2
    14    17    18    1
    15    11    19    1
    16    19    20    1
    17    19    21    1
    18     6     7   ar
    19     7     8   ar
    20     8     9   ar
    21     9    10   ar
    22    10    24    1
    23    24    25    1
    24    10     1   ar
    25     8     3   ar
    26    18    14    1
    27    12    13    1
@<TRIPOS>MOLECULE
*****
 25 27 0 0 0
SMALL
GASTEIGER

@<TRIPOS>ATOM
      1 C          63.0708   87.2999   16.7990 C.ar    1  UNL1        0.1724
      2 C          63.0930   88.7917   16.9543 C.ar    1  UNL1        0.0400
      3 C          63.7176   89.6471   15.8922 C.ar    1  UNL1        0.0032
      4 C          63.7397   91.1389   16.0474 C.ar    1  UNL1       -0.0001
      5 C          64.3643   91.9943   14.9853 C.ar    1  UNL1       -0.0017
      6 C          64.9668   91.3579   13.7679 C.ar    1  UNL1        0.0054
      7 C          64.9447   89.8662   13.6126 C.ar    1  UNL1       -0.0016
      8 C          64.3201   89.0108   14.6747 C.ar    1  UNL1        0.0030
      9 C          64.2979   87.5189   14.5195 C.ar    1  UNL1        0.0400
     10 C          63.6733   86.6636   15.5816 C.ar    1  UNL1        0.1724
     11 C          65.5914   92.2134   12.7058 C.3     1  UNL1        0.1253
     12 O          64.4614   91.8841   11.7759 O.3     1  UNL1       -0.3788
     13 H          63.8370   91.2915   12.2230 H       1  UNL1        0.2111
     14 C          66.7214   92.5427   13.6356 C.2     1  UNL1        0.0304
     15 C          68.0446   91.8389   13.6992 C.2     1  UNL1        0.1177
     16 N          68.8676   92.4949   14.7681 N.2     1  UNL1       -0.1513
     17 N          68.0531   93.6041   15.3650 N.2     1  UNL1       -0.1698
     18 C          66.7267   93.6337   14.6652 C.3     1  UNL1        0.1754
     19 C          66.2160   93.0688   11.6437 C.3     1  UNL1        0.0323
     20 C          66.1102   94.5628   11.7256 C.3     1  UNL1        0.0031
     21 C          66.9465   92.4302   10.4997 C.3     1  UNL1        0.0031
     22 C          62.6705   86.7638   19.3095 C.3     1  UNL1        0.2526
     23 O          62.4462   86.4445   17.8612 O.3     1  UNL1       -0.4684
     24 O          63.6512   85.1717   15.4264 O.3     1  UNL1       -0.4684
     25 C          64.7084   84.4867   14.6122 C.3     1  UNL1        0.2526
@<TRIPOS>BOND
     1    22    23    1
     2    23     1    1
     3     1     2   ar
     4     2     3   ar
     5     3     4   ar
     6     4     5   ar
     7     5     6   ar
     8     6    11    1
     9    11    12    1
    10    11    14    1
    11    14    15    2
    12    15    16    1
    13    16    17    2
    14    17    18    1
    15    11    19    1
    16    19    20    1
    17    19    21    1
    18     6     7   ar
    19     7     8   ar
    20     8     9   ar
    21     9    10   ar
    22    10    24    1
    23    24    25    1
    24    10     1   ar
    25     8     3   ar
    26    18    14    1
    27    12    13    1
@<TRIPOS>MOLECULE
*****
 25 27 0 0 0
SMALL
GASTEIGER

@<TRIPOS>ATOM
      1 C          63.0262   90.2114   11.3132 C.ar    1  UNL1        0.1724
      2 C          62.5159   89.0301   10.5425 C.ar    1  UNL1        0.0400
      3 C          62.5813   87.6573   11.1438 C.ar    1  UNL1        0.0032
      4 C          62.0711   86.4759   10.3732 C.ar    1  UNL1       -0.0001
      5 C          62.1364   85.1033   10.9745 C.ar    1  UNL1       -0.0017
      6 C          62.7120   84.9121   12.3463 C.ar    1  UNL1        0.0054
      7 C          63.2223   86.0935   13.1170 C.ar    1  UNL1       -0.0016
      8 C          63.1569   87.4661   12.5157 C.ar    1  UNL1        0.0030
      9 C          63.6672   88.6476   13.2863 C.ar    1  UNL1        0.0400
     10 C          63.6018   90.0202   12.6851 C.ar    1  UNL1        0.1724
     11 C          62.7774   83.5394   12.9476 C.3     1  UNL1        0.1253
     12 O          62.6798   82.9349   11.5783 O.3     1  UNL1       -0.3788
     13 H          62.6189   83.6415   10.9166 H       1  UNL1        0.2111
     14 C          62.8751   84.1438   14.3169 C.2     1  UNL1        0.0304
     15 C          64.1434   84.4702   15.0482 C.2     1  UNL1        0.1177
     16 N          63.7737   85.0562   16.3787 N.2     1  UNL1       -0.1513
     17 N          62.2768   85.0919   16.4696 N.2     1  UNL1       -0.1698
     18 C          61.7215   84.5281   15.1954 C.3     1  UNL1        0.1754
     19 C          62.8428   82.1667   13.5489 C.3     1  UNL1        0.0323
     20 C          64.1474   81.4277   13.5909 C.3     1  UNL1        0.0031
     21 C          61.6035   81.5331   14.1082 C.3     1  UNL1        0.0031
     22 C          64.2252   92.3055   10.3501 C.3     1  UNL1        0.2526
     23 O          62.9608   91.5842   10.7119 O.3     1  UNL1       -0.4684
     24 O          64.1121   91.2017   13.4557 O.3     1  UNL1       -0.4684
     25 C          65.5737   91.3156   13.7732 C.3     1  UNL1        0.2526
@<TRIPOS>BOND
     1    22    23    1
     2    23     1    1
     3     1     2   ar
     4     2     3   ar
     5     3     4   ar
     6     4     5   ar
     7     5     6   ar
     8     6    11    1
     9    11    12    1
    10    11    14    1
    11    14    15    2
    12    15    16    1
    13    16    17    2
    14    17    18    1
    15    11    19    1
    16    19    20    1
    17    19    21    1
    18     6     7   ar
    19     7     8   ar
    20     8     9   ar
    21     9    10   ar
    22    10    24    1
    23    24    25    1
    24    10     1   ar
    25     8     3   ar
    26    18    14    1
    27    12    13    1
