@<TRIPOS>MOLECULE
*****
 29 33 0 0 0
SMALL
GASTEIGER

@<TRIPOS>ATOM
      1 C          59.3061   89.0869    7.1253 C.3     1  UNL1        0.0534
      2 C          60.1075   88.5649    8.2809 C.ar    1  UNL1        0.0730
      3 N          60.6481   89.3796    9.4184 N.ar    1  UNL1       -0.2299
      4 C          61.3838   88.4547   10.3423 C.ar    1  UNL1        0.1604
      5 C          62.1208   88.6957   11.6264 C.ar    1  UNL1        0.0814
      6 C          62.7719   87.5506   12.3438 C.ar    1  UNL1        0.0381
      7 C          62.6859   86.1644   11.7772 C.ar    1  UNL1        0.1034
      8 C          61.9488   85.9234   10.4932 C.ar    1  UNL1        0.1005
      9 N          61.2978   87.0685    9.7758 N.ar    1  UNL1       -0.2905
     10 C          60.5090   87.1366    8.5017 C.ar    1  UNL1        0.0567
     11 C          60.1796   85.9796    7.6058 C.3     1  UNL1        0.0517
     12 N          63.3369   85.0192   12.4946 N.ar    1  UNL1       -0.2064
     13 C          63.6789   83.6856   11.8991 C.ar    1  UNL1        0.2017
     14 N          64.3136   82.8488   12.9699 N.ar    1  UNL1       -0.2004
     15 C          64.3640   83.6651   14.2274 C.ar    1  UNL1        0.2214
     16 N          63.7603   85.0065   13.9336 N.ar    1  UNL1       -0.1408
     17 N          62.2068   90.0820   12.1929 N.pl3   1  UNL1       -0.3263
     18 H          61.4828   90.4259   12.7646 H       1  UNL1        0.1472
     19 C          63.3959   90.9442   11.8885 C.3     1  UNL1        0.1192
     20 C          64.4980   91.2953   12.8435 C.ar    1  UNL1       -0.0061
     21 C          64.7383   90.9277   14.2777 C.ar    1  UNL1       -0.0029
     22 C          65.9554   91.4396   14.9894 C.ar    1  UNL1       -0.0003
     23 C          66.9323   92.3191   14.2668 C.ar    1  UNL1       -0.0003
     24 C          66.6921   92.6867   12.8325 C.ar    1  UNL1       -0.0044
     25 C          65.4749   92.1748   12.1209 C.ar    1  UNL1       -0.0220
     26 C          64.9765   92.3673   10.7192 C.3     1  UNL1        0.0573
     27 C          63.6916   91.6067   10.5757 C.3     1  UNL1        0.1367
     28 O          62.8502   91.5234    9.3367 O.3     1  UNL1       -0.3821
     29 H          63.2644   92.0416    8.6291 H       1  UNL1        0.2104
@<TRIPOS>BOND
     1     1     2    1
     2     2     3   ar
     3     3     4   ar
     4     4     5   ar
     5     5    17    1
     6    19    17    1
     7    19    20    1
     8    20    21   ar
     9    21    22   ar
    10    22    23   ar
    11    23    24   ar
    12    24    25   ar
    13    25    26    1
    14    26    27    1
    15    27    28    1
    16     5     6   ar
    17     6     7   ar
    18     7    12    1
    19    12    13   ar
    20    13    14   ar
    21    14    15   ar
    22    15    16   ar
    23     7     8   ar
    24     8     9   ar
    25     9    10   ar
    26    10    11    1
    27    10     2   ar
    28     9     4   ar
    29    27    19    1
    30    16    12   ar
    31    25    20   ar
    32    17    18    1
    33    28    29    1
@<TRIPOS>MOLECULE
*****
 29 33 0 0 0
SMALL
GASTEIGER

@<TRIPOS>ATOM
      1 C          59.1066   89.0748    6.9584 C.3     1  UNL1        0.0534
      2 C          59.9180   88.6012    8.1278 C.ar    1  UNL1        0.0730
      3 N          60.4663   89.4620    9.2270 N.ar    1  UNL1       -0.2299
      4 C          61.2107   88.5763   10.1818 C.ar    1  UNL1        0.1604
      5 C          61.9574   88.8702   11.4491 C.ar    1  UNL1        0.0814
      6 C          62.6160   87.7559   12.2071 C.ar    1  UNL1        0.0381
      7 C          62.5279   86.3478   11.6979 C.ar    1  UNL1        0.1034
      8 C          61.7811   86.0539   10.4306 C.ar    1  UNL1        0.1005
      9 N          61.1226   87.1682    9.6725 N.ar    1  UNL1       -0.2905
     10 C          60.3237   87.1835    8.4031 C.ar    1  UNL1        0.0567
     11 C          59.9891   85.9907    7.5574 C.3     1  UNL1        0.0517
     12 N          63.1865   85.2335   12.4559 N.ar    1  UNL1       -0.2064
     13 C          63.5317   83.8795   11.9104 C.ar    1  UNL1        0.2017
     14 N          64.1740   83.0867   13.0099 N.ar    1  UNL1       -0.2004
     15 C          64.2259   83.9508   14.2350 C.ar    1  UNL1        0.2214
     16 N          63.6155   85.2775   13.8926 N.ar    1  UNL1       -0.1408
     17 N          62.0456   90.2784   11.9583 N.pl3   1  UNL1       -0.3263
     18 H          61.3144   90.9130   11.7798 H       1  UNL1        0.1472
     19 C          63.2477   90.7195   12.7395 C.3     1  UNL1        0.1192
     20 C          64.4121   91.4973   12.2015 C.ar    1  UNL1       -0.0061
     21 C          64.7155   92.0323   10.8334 C.ar    1  UNL1       -0.0029
     22 C          65.9874   92.7889   10.5891 C.ar    1  UNL1       -0.0003
     23 C          66.9559   93.0105   11.7129 C.ar    1  UNL1       -0.0003
     24 C          66.6525   92.4755   13.0810 C.ar    1  UNL1       -0.0044
     25 C          65.3806   91.7188   13.3253 C.ar    1  UNL1       -0.0220
     26 C          64.8148   91.0780   14.5578 C.3     1  UNL1        0.0573
     27 C          63.4966   90.4605   14.1958 C.3     1  UNL1        0.1367
     28 O          62.5871   89.7147   15.1267 O.3     1  UNL1       -0.3821
     29 H          62.9815   89.6890   16.0125 H       1  UNL1        0.2104
@<TRIPOS>BOND
     1     1     2    1
     2     2     3   ar
     3     3     4   ar
     4     4     5   ar
     5     5    17    1
     6    19    17    1
     7    19    20    1
     8    20    21   ar
     9    21    22   ar
    10    22    23   ar
    11    23    24   ar
    12    24    25   ar
    13    25    26    1
    14    26    27    1
    15    27    28    1
    16     5     6   ar
    17     6     7   ar
    18     7    12    1
    19    12    13   ar
    20    13    14   ar
    21    14    15   ar
    22    15    16   ar
    23     7     8   ar
    24     8     9   ar
    25     9    10   ar
    26    10    11    1
    27    10     2   ar
    28     9     4   ar
    29    27    19    1
    30    16    12   ar
    31    25    20   ar
    32    17    18    1
    33    28    29    1
@<TRIPOS>MOLECULE
*****
 29 33 0 0 0
SMALL
GASTEIGER

@<TRIPOS>ATOM
      1 C          64.9954   85.5001   15.0212 C.3     1  UNL1        0.0534
      2 C          64.1597   86.1753   13.9744 C.ar    1  UNL1        0.0730
      3 N          63.9201   87.6511   13.8540 N.ar    1  UNL1       -0.2299
      4 C          63.0292   87.8810   12.6693 C.ar    1  UNL1        0.1604
      5 C          62.4611   89.1325   12.0686 C.ar    1  UNL1        0.0814
      6 C          61.5819   89.0503   10.8561 C.ar    1  UNL1        0.0381
      7 C          61.2708   87.7166   10.2443 C.ar    1  UNL1        0.1034
      8 C          61.8390   86.4651   10.8450 C.ar    1  UNL1        0.1005
      9 N          62.7182   86.5473   12.0575 N.ar    1  UNL1       -0.2905
     10 C          63.4169   85.4931   12.8640 C.ar    1  UNL1        0.0567
     11 C          63.3793   84.0160   12.6056 C.3     1  UNL1        0.0517
     12 N          60.3916   87.6344    9.0317 N.ar    1  UNL1       -0.2064
     13 C          59.9453   86.3750    8.3500 C.ar    1  UNL1        0.2017
     14 N          59.0822   86.7594    7.1850 N.ar    1  UNL1       -0.2004
     15 C          58.9950   88.2564    7.1467 C.ar    1  UNL1        0.2214
     16 N          59.8043   88.7972    8.2880 N.ar    1  UNL1       -0.1408
     17 N          62.7721   90.4663   12.6805 N.pl3   1  UNL1       -0.3263
     18 H          62.1780   90.8423   13.3697 H       1  UNL1        0.1472
     19 C          63.9884   91.2271   12.2425 C.3     1  UNL1        0.1192
     20 C          65.2159   91.4780   13.0672 C.ar    1  UNL1       -0.0061
     21 C          65.5828   91.0824   14.4668 C.ar    1  UNL1       -0.0029
     22 C          66.9106   91.4854   15.0364 C.ar    1  UNL1       -0.0003
     23 C          67.8716   92.2839   14.2063 C.ar    1  UNL1       -0.0003
     24 C          67.5047   92.6795   12.8068 C.ar    1  UNL1       -0.0044
     25 C          66.1768   92.2765   12.2372 C.ar    1  UNL1       -0.0220
     26 C          65.5432   92.5192   10.8994 C.3     1  UNL1        0.0573
     27 C          64.1907   91.8706   10.9027 C.3     1  UNL1        0.1367
     28 O          63.2122   91.8664    9.7658 O.3     1  UNL1       -0.3821
     29 H          63.5871   92.3523    9.0147 H       1  UNL1        0.2104
@<TRIPOS>BOND
     1     1     2    1
     2     2     3   ar
     3     3     4   ar
     4     4     5   ar
     5     5    17    1
     6    19    17    1
     7    19    20    1
     8    20    21   ar
     9    21    22   ar
    10    22    23   ar
    11    23    24   ar
    12    24    25   ar
    13    25    26    1
    14    26    27    1
    15    27    28    1
    16     5     6   ar
    17     6     7   ar
    18     7    12    1
    19    12    13   ar
    20    13    14   ar
    21    14    15   ar
    22    15    16   ar
    23     7     8   ar
    24     8     9   ar
    25     9    10   ar
    26    10    11    1
    27    10     2   ar
    28     9     4   ar
    29    27    19    1
    30    16    12   ar
    31    25    20   ar
    32    17    18    1
    33    28    29    1
@<TRIPOS>MOLECULE
*****
 29 33 0 0 0
SMALL
GASTEIGER

@<TRIPOS>ATOM
      1 C          65.0656   91.1364   14.7299 C.3     1  UNL1        0.0534
      2 C          64.3971   90.0802   13.9005 C.ar    1  UNL1        0.0730
      3 N          64.3832   88.6087   14.1910 N.ar    1  UNL1       -0.2299
      4 C          63.6026   87.9293   13.1050 C.ar    1  UNL1        0.1604
      5 C          63.2580   86.4888   12.8675 C.ar    1  UNL1        0.0814
      6 C          62.4448   86.1001   11.6686 C.ar    1  UNL1        0.0381
      7 C          61.9763   87.1517   10.7071 C.ar    1  UNL1        0.1034
      8 C          62.3210   88.5921   10.9445 C.ar    1  UNL1        0.1005
      9 N          63.1341   88.9809   12.1435 N.ar    1  UNL1       -0.2905
     10 C          63.6251   90.3103   12.6351 C.ar    1  UNL1        0.0567
     11 C          63.3861   91.6368   11.9769 C.3     1  UNL1        0.0517
     12 N          61.1631   86.7629    9.5080 N.ar    1  UNL1       -0.2064
     13 C          61.5652   85.7762    8.4522 C.ar    1  UNL1        0.2017
     14 N          60.4557   85.6961    7.4460 N.ar    1  UNL1       -0.2004
     15 C          59.3678   86.6334    7.8799 C.ar    1  UNL1        0.2214
     16 N          59.8050   87.2926    9.1543 N.ar    1  UNL1       -0.1408
     17 N          63.7265   85.4372   13.8291 N.pl3   1  UNL1       -0.3263
     18 H          64.3798   85.6662   14.5292 H       1  UNL1        0.1472
     19 C          63.1997   84.0367   13.7241 C.3     1  UNL1        0.1192
     20 C          63.3293   83.1329   12.5340 C.ar    1  UNL1       -0.0061
     21 C          63.9698   83.3267   11.1916 C.ar    1  UNL1       -0.0029
     22 C          63.9416   82.2193   10.1802 C.ar    1  UNL1       -0.0003
     23 C          63.2728   80.9181   10.5113 C.ar    1  UNL1       -0.0003
     24 C          62.6323   80.7243   11.8537 C.ar    1  UNL1       -0.0044
     25 C          62.6605   81.8317   12.8650 C.ar    1  UNL1       -0.0220
     26 C          62.1175   81.9313   14.2598 C.3     1  UNL1        0.0573
     27 C          62.4508   83.2940   14.7907 C.3     1  UNL1        0.1367
     28 O          62.0972   83.8215   16.1496 O.3     1  UNL1       -0.3821
     29 H          61.6133   83.1419   16.6444 H       1  UNL1        0.2104
@<TRIPOS>BOND
     1     1     2    1
     2     2     3   ar
     3     3     4   ar
     4     4     5   ar
     5     5    17    1
     6    19    17    1
     7    19    20    1
     8    20    21   ar
     9    21    22   ar
    10    22    23   ar
    11    23    24   ar
    12    24    25   ar
    13    25    26    1
    14    26    27    1
    15    27    28    1
    16     5     6   ar
    17     6     7   ar
    18     7    12    1
    19    12    13   ar
    20    13    14   ar
    21    14    15   ar
    22    15    16   ar
    23     7     8   ar
    24     8     9   ar
    25     9    10   ar
    26    10    11    1
    27    10     2   ar
    28     9     4   ar
    29    27    19    1
    30    16    12   ar
    31    25    20   ar
    32    17    18    1
    33    28    29    1
@<TRIPOS>MOLECULE
*****
 29 33 0 0 0
SMALL
GASTEIGER

@<TRIPOS>ATOM
      1 C          61.1871   86.4817    9.6481 C.3     1  UNL1        0.0534
      2 C          61.9401   87.0569   10.8109 C.ar    1  UNL1        0.0730
      3 N          62.7360   86.2799   11.8172 N.ar    1  UNL1       -0.2299
      4 C          63.3172   87.2530   12.7998 C.ar    1  UNL1        0.1604
      5 C          64.1877   87.0620   14.0064 C.ar    1  UNL1        0.0814
      6 C          64.6214   88.2494   14.8139 C.ar    1  UNL1        0.0381
      7 C          64.1846   89.6277   14.4148 C.ar    1  UNL1        0.1034
      8 C          63.3141   89.8187   13.2082 C.ar    1  UNL1        0.1005
      9 N          62.8804   88.6314   12.4008 N.ar    1  UNL1       -0.2905
     10 C          62.0293   88.5102   11.1716 C.ar    1  UNL1        0.0567
     11 C          61.3812   89.6434   10.4327 C.3     1  UNL1        0.0517
     12 N          64.6183   90.8152   15.2223 N.ar    1  UNL1       -0.2064
     13 C          63.8877   91.3979   16.3956 C.ar    1  UNL1        0.2017
     14 N          64.6766   92.5712   16.8967 N.ar    1  UNL1       -0.2004
     15 C          65.8948   92.7136   16.0330 C.ar    1  UNL1        0.2214
     16 N          65.8587   91.6283   14.9982 N.ar    1  UNL1       -0.1408
     17 N          64.6245   85.6836   14.4054 N.pl3   1  UNL1       -0.3263
     18 H          65.5422   85.5321   14.7280 H       1  UNL1        0.1472
     19 C          63.6630   84.5360   14.3129 C.3     1  UNL1        0.1192
     20 C          63.6083   83.5180   13.2126 C.ar    1  UNL1       -0.0061
     21 C          64.4255   83.3414   11.9672 C.ar    1  UNL1       -0.0029
     22 C          64.1332   82.2045   11.0334 C.ar    1  UNL1       -0.0003
     23 C          63.0238   81.2442   11.3449 C.ar    1  UNL1       -0.0003
     24 C          62.2066   81.4209   12.5903 C.ar    1  UNL1       -0.0044
     25 C          62.4989   82.5577   13.5241 C.ar    1  UNL1       -0.0220
     26 C          61.8678   82.9823   14.8170 C.3     1  UNL1        0.0573
     27 C          62.5873   84.2049   15.3045 C.3     1  UNL1        0.1367
     28 O          62.2842   84.9632   16.5627 O.3     1  UNL1       -0.3821
     29 H          61.5424   84.5413   17.0238 H       1  UNL1        0.2104
@<TRIPOS>BOND
     1     1     2    1
     2     2     3   ar
     3     3     4   ar
     4     4     5   ar
     5     5    17    1
     6    19    17    1
     7    19    20    1
     8    20    21   ar
     9    21    22   ar
    10    22    23   ar
    11    23    24   ar
    12    24    25   ar
    13    25    26    1
    14    26    27    1
    15    27    28    1
    16     5     6   ar
    17     6     7   ar
    18     7    12    1
    19    12    13   ar
    20    13    14   ar
    21    14    15   ar
    22    15    16   ar
    23     7     8   ar
    24     8     9   ar
    25     9    10   ar
    26    10    11    1
    27    10     2   ar
    28     9     4   ar
    29    27    19    1
    30    16    12   ar
    31    25    20   ar
    32    17    18    1
    33    28    29    1
@<TRIPOS>MOLECULE
*****
 29 33 0 0 0
SMALL
GASTEIGER

@<TRIPOS>ATOM
      1 C          64.6924   85.2905   15.8066 C.3     1  UNL1        0.0534
      2 C          64.0867   85.6304   14.4770 C.ar    1  UNL1        0.0730
      3 N          63.5519   86.9710   14.0687 N.ar    1  UNL1       -0.2299
      4 C          63.0441   86.8585   12.6616 C.ar    1  UNL1        0.1604
      5 C          62.4091   87.8579   11.7409 C.ar    1  UNL1        0.0814
      6 C          61.9951   87.4473   10.3589 C.ar    1  UNL1        0.0381
      7 C          62.2161   86.0372    9.8977 C.ar    1  UNL1        0.1034
      8 C          62.8512   85.0377   10.8185 C.ar    1  UNL1        0.1005
      9 N          63.2652   85.4484   12.2005 N.ar    1  UNL1       -0.2905
     10 C          63.9095   84.6894   13.3224 C.ar    1  UNL1        0.0567
     11 C          64.3069   83.2433   13.2946 C.3     1  UNL1        0.0517
     12 N          61.8021   85.6265    8.5156 N.ar    1  UNL1       -0.2064
     13 C          60.4636   85.8750    7.8858 C.ar    1  UNL1        0.2017
     14 N          60.4882   85.2972    6.5017 N.ar    1  UNL1       -0.2004
     15 C          61.8419   84.6916    6.2762 C.ar    1  UNL1        0.2214
     16 N          62.6539   84.8951    7.5209 N.ar    1  UNL1       -0.1408
     17 N          62.1880   89.2681   12.2021 N.pl3   1  UNL1       -0.3263
     18 H          61.3903   89.4929   12.7334 H       1  UNL1        0.1472
     19 C          63.1825   90.3357   11.8538 C.3     1  UNL1        0.1192
     20 C          64.2807   90.8412   12.7418 C.ar    1  UNL1       -0.0061
     21 C          64.6949   90.4718   14.1353 C.ar    1  UNL1       -0.0029
     22 C          65.8587   91.1643   14.7802 C.ar    1  UNL1       -0.0003
     23 C          66.6083   92.2262   14.0316 C.ar    1  UNL1       -0.0003
     24 C          66.1941   92.5956   12.6381 C.ar    1  UNL1       -0.0044
     25 C          65.0303   91.9032   11.9932 C.ar    1  UNL1       -0.0220
     26 C          64.3954   92.0539   10.6425 C.3     1  UNL1        0.0573
     27 C          63.2534   91.0852   10.5564 C.3     1  UNL1        0.1367
     28 O          62.3423   90.8986    9.3795 O.3     1  UNL1       -0.3821
     29 H          62.6030   91.5059    8.6694 H       1  UNL1        0.2104
@<TRIPOS>BOND
     1     1     2    1
     2     2     3   ar
     3     3     4   ar
     4     4     5   ar
     5     5    17    1
     6    19    17    1
     7    19    20    1
     8    20    21   ar
     9    21    22   ar
    10    22    23   ar
    11    23    24   ar
    12    24    25   ar
    13    25    26    1
    14    26    27    1
    15    27    28    1
    16     5     6   ar
    17     6     7   ar
    18     7    12    1
    19    12    13   ar
    20    13    14   ar
    21    14    15   ar
    22    15    16   ar
    23     7     8   ar
    24     8     9   ar
    25     9    10   ar
    26    10    11    1
    27    10     2   ar
    28     9     4   ar
    29    27    19    1
    30    16    12   ar
    31    25    20   ar
    32    17    18    1
    33    28    29    1
@<TRIPOS>MOLECULE
*****
 29 33 0 0 0
SMALL
GASTEIGER

@<TRIPOS>ATOM
      1 C          65.0802   85.2999   14.9693 C.3     1  UNL1        0.0534
      2 C          64.1995   85.9908   13.9708 C.ar    1  UNL1        0.0730
      3 N          63.7921   87.4340   14.0042 N.ar    1  UNL1       -0.2299
      4 C          62.9123   87.6949   12.8176 C.ar    1  UNL1        0.1604
      5 C          62.2178   88.9342   12.3363 C.ar    1  UNL1        0.0814
      6 C          61.3868   88.8915   11.0882 C.ar    1  UNL1        0.0381
      7 C          61.2504   87.6096   10.3215 C.ar    1  UNL1        0.1034
      8 C          61.9450   86.3702   10.8029 C.ar    1  UNL1        0.1005
      9 N          62.7759   86.4129   12.0509 N.ar    1  UNL1       -0.2905
     10 C          63.5714   85.3597   12.7636 C.ar    1  UNL1        0.0567
     11 C          63.7138   83.9270   12.3430 C.3     1  UNL1        0.0517
     12 N          60.4195   87.5669    9.0734 N.ar    1  UNL1       -0.2064
     13 C          60.0171   86.3314    8.3239 C.ar    1  UNL1        0.2017
     14 N          59.1939   86.7531    7.1430 N.ar    1  UNL1       -0.2004
     15 C          59.0876   88.2493    7.1626 C.ar    1  UNL1        0.2214
     16 N          59.8450   88.7522    8.3556 N.ar    1  UNL1       -0.1408
     17 N          62.3542   90.2162   13.1030 N.pl3   1  UNL1       -0.3263
     18 H          61.5502   90.7156   13.3742 H       1  UNL1        0.1472
     19 C          63.7156   90.7374   13.4567 C.3     1  UNL1        0.1192
     20 C          64.6401   91.4821   12.5398 C.ar    1  UNL1       -0.0061
     21 C          64.5074   91.9038   11.1065 C.ar    1  UNL1       -0.0029
     22 C          65.6219   92.6536   10.4390 C.ar    1  UNL1       -0.0003
     23 C          66.8692   92.9818   11.2049 C.ar    1  UNL1       -0.0003
     24 C          67.0019   92.5602   12.6383 C.ar    1  UNL1       -0.0044
     25 C          65.8874   91.8103   13.3057 C.ar    1  UNL1       -0.0220
     26 C          65.7337   91.2684   14.6960 C.3     1  UNL1        0.0573
     27 C          64.3915   90.6053   14.7892 C.3     1  UNL1        0.1367
     28 O          63.8246   89.9289   16.0022 O.3     1  UNL1       -0.3821
     29 H          64.4629   89.9832   16.7306 H       1  UNL1        0.2104
@<TRIPOS>BOND
     1     1     2    1
     2     2     3   ar
     3     3     4   ar
     4     4     5   ar
     5     5    17    1
     6    19    17    1
     7    19    20    1
     8    20    21   ar
     9    21    22   ar
    10    22    23   ar
    11    23    24   ar
    12    24    25   ar
    13    25    26    1
    14    26    27    1
    15    27    28    1
    16     5     6   ar
    17     6     7   ar
    18     7    12    1
    19    12    13   ar
    20    13    14   ar
    21    14    15   ar
    22    15    16   ar
    23     7     8   ar
    24     8     9   ar
    25     9    10   ar
    26    10    11    1
    27    10     2   ar
    28     9     4   ar
    29    27    19    1
    30    16    12   ar
    31    25    20   ar
    32    17    18    1
    33    28    29    1
@<TRIPOS>MOLECULE
*****
 29 33 0 0 0
SMALL
GASTEIGER

@<TRIPOS>ATOM
      1 C          64.8443   85.6896   15.3897 C.3     1  UNL1        0.0534
      2 C          64.1477   86.3544   14.2395 C.ar    1  UNL1        0.0730
      3 N          64.3058   87.7862   13.8214 N.ar    1  UNL1       -0.2299
      4 C          63.4264   88.0207   12.6289 C.ar    1  UNL1        0.1604
      5 C          63.1739   89.2398   11.7923 C.ar    1  UNL1        0.0814
      6 C          62.2198   89.1720   10.6369 C.ar    1  UNL1        0.0381
      7 C          61.5182   87.8852   10.3181 C.ar    1  UNL1        0.1034
      8 C          61.7707   86.6661   11.1548 C.ar    1  UNL1        0.1005
      9 N          62.7248   86.7338   12.3102 N.ar    1  UNL1       -0.2905
     10 C          63.1705   85.7040   13.3055 C.ar    1  UNL1        0.0567
     11 C          62.7185   84.2747   13.3578 C.3     1  UNL1        0.0517
     12 N          60.5641   87.8174    9.1626 N.ar    1  UNL1       -0.2064
     13 C          60.0487   88.9853    8.3750 C.ar    1  UNL1        0.2017
     14 N          59.1239   88.4594    7.3176 N.ar    1  UNL1       -0.2004
     15 C          59.0677   86.9664    7.4516 C.ar    1  UNL1        0.2214
     16 N          59.9578   86.5696    8.5919 N.ar    1  UNL1       -0.1408
     17 N          63.8756   90.5267   12.1111 N.pl3   1  UNL1       -0.3263
     18 H          64.1275   91.1428   11.3857 H       1  UNL1        0.1472
     19 C          64.1934   90.8749   13.5351 C.3     1  UNL1        0.1192
     20 C          65.4285   91.5767   14.0166 C.ar    1  UNL1       -0.0061
     21 C          66.6299   92.1055   13.2907 C.ar    1  UNL1       -0.0029
     22 C          67.7331   92.7755   14.0549 C.ar    1  UNL1       -0.0003
     23 C          67.6349   92.9167   15.5450 C.ar    1  UNL1       -0.0003
     24 C          66.4335   92.3879   16.2710 C.ar    1  UNL1       -0.0044
     25 C          65.3303   91.7179   15.5068 C.ar    1  UNL1       -0.0220
     26 C          64.0345   91.1033   15.9462 C.3     1  UNL1        0.0573
     27 C          63.3318   90.5823   14.7276 C.3     1  UNL1        0.1367
     28 O          62.0012   89.8902   14.7055 O.3     1  UNL1       -0.3821
     29 H          61.6546   89.8270   15.6093 H       1  UNL1        0.2104
@<TRIPOS>BOND
     1     1     2    1
     2     2     3   ar
     3     3     4   ar
     4     4     5   ar
     5     5    17    1
     6    19    17    1
     7    19    20    1
     8    20    21   ar
     9    21    22   ar
    10    22    23   ar
    11    23    24   ar
    12    24    25   ar
    13    25    26    1
    14    26    27    1
    15    27    28    1
    16     5     6   ar
    17     6     7   ar
    18     7    12    1
    19    12    13   ar
    20    13    14   ar
    21    14    15   ar
    22    15    16   ar
    23     7     8   ar
    24     8     9   ar
    25     9    10   ar
    26    10    11    1
    27    10     2   ar
    28     9     4   ar
    29    27    19    1
    30    16    12   ar
    31    25    20   ar
    32    17    18    1
    33    28    29    1
@<TRIPOS>MOLECULE
*****
 29 33 0 0 0
SMALL
GASTEIGER

@<TRIPOS>ATOM
      1 C          62.8739   79.3251   10.0051 C.3     1  UNL1        0.0534
      2 C          62.8941   80.6359   10.7342 C.ar    1  UNL1        0.0730
      3 N          62.9687   81.9947   10.1032 N.ar    1  UNL1       -0.2299
      4 C          62.9640   83.0165   11.2014 C.ar    1  UNL1        0.1604
      5 C          63.0202   84.5153   11.1780 C.ar    1  UNL1        0.0814
      6 C          62.9989   85.2868   12.4642 C.ar    1  UNL1        0.0381
      7 C          62.9215   84.5596   13.7737 C.ar    1  UNL1        0.1034
      8 C          62.8652   83.0608   13.7972 C.ar    1  UNL1        0.1005
      9 N          62.8865   82.2893   12.5110 N.ar    1  UNL1       -0.2905
     10 C          62.8433   80.8180   12.2223 C.ar    1  UNL1        0.0567
     11 C          62.7634   79.7213   13.2425 C.3     1  UNL1        0.0517
     12 N          62.9002   85.3311   15.0600 N.ar    1  UNL1       -0.2064
     13 C          63.7706   86.5048   15.3986 C.ar    1  UNL1        0.2017
     14 N          63.4132   86.9634   16.7813 N.ar    1  UNL1       -0.2004
     15 C          62.3218   86.0730   17.2973 C.ar    1  UNL1        0.2214
     16 N          62.0048   85.0642   16.2335 N.ar    1  UNL1       -0.1408
     17 N          63.0976   85.2426    9.8683 N.pl3   1  UNL1       -0.3263
     18 H          63.8249   85.0415    9.2359 H       1  UNL1        0.1472
     19 C          62.0671   86.2761    9.5223 C.3     1  UNL1        0.1192
     20 C          61.8855   87.6017   10.2003 C.ar    1  UNL1       -0.0061
     21 C          62.6127   88.2551   11.3379 C.ar    1  UNL1       -0.0029
     22 C          62.1977   89.6171   11.8098 C.ar    1  UNL1       -0.0003
     23 C          61.0556   90.3258   11.1441 C.ar    1  UNL1       -0.0003
     24 C          60.3284   89.6724   10.0064 C.ar    1  UNL1       -0.0044
     25 C          60.7433   88.3104    9.5345 C.ar    1  UNL1       -0.0220
     26 C          60.2190   87.4227    8.4450 C.3     1  UNL1        0.0573
     27 C          61.0371   86.1655    8.4375 C.3     1  UNL1        0.1367
     28 O          60.8568   85.0019    7.5082 O.3     1  UNL1       -0.3821
     29 H          60.1216   85.1831    6.9020 H       1  UNL1        0.2104
@<TRIPOS>BOND
     1     1     2    1
     2     2     3   ar
     3     3     4   ar
     4     4     5   ar
     5     5    17    1
     6    19    17    1
     7    19    20    1
     8    20    21   ar
     9    21    22   ar
    10    22    23   ar
    11    23    24   ar
    12    24    25   ar
    13    25    26    1
    14    26    27    1
    15    27    28    1
    16     5     6   ar
    17     6     7   ar
    18     7    12    1
    19    12    13   ar
    20    13    14   ar
    21    14    15   ar
    22    15    16   ar
    23     7     8   ar
    24     8     9   ar
    25     9    10   ar
    26    10    11    1
    27    10     2   ar
    28     9     4   ar
    29    27    19    1
    30    16    12   ar
    31    25    20   ar
    32    17    18    1
    33    28    29    1
