@<TRIPOS>MOLECULE
*****
 26 29 0 0 0
SMALL
GASTEIGER

@<TRIPOS>ATOM
      1 C          63.5292   86.7536   13.0999 C.ar    1  UNL1        0.0866
      2 C          62.9985   87.7361   12.0985 C.ar    1  UNL1        0.0106
      3 C          63.1370   89.2089   12.3468 C.ar    1  UNL1        0.0377
      4 C          63.8061   89.6991   13.5966 C.ar    1  UNL1        0.1453
      5 C          64.3368   88.7166   14.5980 C.ar    1  UNL1        0.0377
      6 C          64.1983   87.2438   14.3497 C.ar    1  UNL1        0.0106
      7 O          64.5509   82.5630   10.2024 O.2     1  UNL1       -0.2376
      8 C          63.9017   83.1855   11.4028 C.2     1  UNL1        0.3788
      9 N          64.0400   84.6582   11.6512 N.am    1  UNL1        0.0364
     10 C          63.3908   85.2807   12.8516 C.2     1  UNL1        0.3688
     11 N          62.6031   84.4304   13.8036 N.2     1  UNL1       -0.0400
     12 C          62.4646   82.9575   13.5553 C.2     1  UNL1        0.1818
     13 C          61.6770   82.1072   14.5074 C.3     1  UNL1        0.1000
     14 C          61.5386   80.6344   14.2590 C.2     1  UNL1       -0.0174
     15 C          62.1879   80.0120   13.0586 C.2     1  UNL1       -0.0038
     16 C          62.9755   80.8623   12.1066 C.2     1  UNL1        0.0101
     17 C          63.1139   82.3351   12.3549 C.2     1  UNL1        0.1209
     18 O          63.9445   91.1720   13.8449 O.3     1  UNL1       -0.4526
     19 C          65.2553   91.7343   14.3093 C.ar    1  UNL1        0.1558
     20 C          66.3947   91.8760   13.3441 C.ar    1  UNL1        0.0392
     21 C          67.7054   92.4384   13.8085 C.ar    1  UNL1        0.0146
     22 C          67.8768   92.8591   15.2381 C.ar    1  UNL1        0.0587
     23 CL         69.1875   93.4214   15.7024 Cl      1  UNL1       -0.0822
     24 C          66.7373   92.7174   16.2033 C.ar    1  UNL1        0.0259
     25 C          65.4265   92.1550   15.7388 C.ar    1  UNL1        0.0929
     26 CL         64.2871   92.0133   16.7040 Cl      1  UNL1       -0.0790
@<TRIPOS>BOND
     1     7     8    2
     2     8     9    1
     3     9    10    2
     4    10     1    1
     5     1     2   ar
     6     2     3   ar
     7     3     4   ar
     8     4    18    1
     9    18    19    1
    10    19    20   ar
    11    20    21   ar
    12    21    22   ar
    13    22    23    1
    14    22    24   ar
    15    24    25   ar
    16    25    26    1
    17     4     5   ar
    18     5     6   ar
    19    10    11    1
    20    11    12    2
    21    12    13    1
    22    13    14    1
    23    14    15    2
    24    15    16    1
    25    16    17    2
    26    17     8    1
    27     6     1   ar
    28    17    12    1
    29    25    19   ar
@<TRIPOS>MOLECULE
*****
 26 29 0 0 0
SMALL
GASTEIGER

@<TRIPOS>ATOM
      1 C          63.3049   89.8541   12.8878 C.ar    1  UNL1        0.0866
      2 C          62.1726   90.5447   12.1872 C.ar    1  UNL1        0.0106
      3 C          61.2231   89.7541   11.3368 C.ar    1  UNL1        0.0377
      4 C          61.4059   88.2728   11.1869 C.ar    1  UNL1        0.1453
      5 C          62.5383   87.5822   11.8875 C.ar    1  UNL1        0.0377
      6 C          63.4877   88.3729   12.7380 C.ar    1  UNL1        0.0106
      7 O          64.2754   92.5900   17.1975 O.2     1  UNL1       -0.2376
      8 C          64.7396   92.0127   15.8932 C.2     1  UNL1        0.3788
      9 N          63.7902   91.2221   15.0427 N.am    1  UNL1        0.0364
     10 C          64.2544   90.6448   13.7384 C.2     1  UNL1        0.3688
     11 N          65.6681   90.8581   13.2846 N.2     1  UNL1       -0.0400
     12 C          66.6176   91.6487   14.1351 C.2     1  UNL1        0.1818
     13 C          68.0313   91.8620   13.6814 C.3     1  UNL1        0.1000
     14 C          68.9807   92.6526   14.5319 C.2     1  UNL1       -0.0174
     15 C          68.5165   93.2299   15.8362 C.2     1  UNL1       -0.0038
     16 C          67.1028   93.0166   16.2900 C.2     1  UNL1        0.0101
     17 C          66.1534   92.2260   15.4395 C.2     1  UNL1        0.1209
     18 O          60.4564   87.4822   10.3363 O.3     1  UNL1       -0.4526
     19 C          60.9791   86.6527    9.2012 C.ar    1  UNL1        0.1558
     20 C          62.3846   86.1301    9.2392 C.ar    1  UNL1        0.0392
     21 C          62.9073   85.3006    8.1040 C.ar    1  UNL1        0.0146
     22 C          62.0245   84.9937    6.9307 C.ar    1  UNL1        0.0587
     23 CL         62.5472   84.1642    5.7955 Cl      1  UNL1       -0.0822
     24 C          60.6190   85.5163    6.8927 C.ar    1  UNL1        0.0259
     25 C          60.0963   86.3459    8.0279 C.ar    1  UNL1        0.0929
     26 CL         58.6908   86.8685    7.9899 Cl      1  UNL1       -0.0790
@<TRIPOS>BOND
     1     7     8    2
     2     8     9    1
     3     9    10    2
     4    10     1    1
     5     1     2   ar
     6     2     3   ar
     7     3     4   ar
     8     4    18    1
     9    18    19    1
    10    19    20   ar
    11    20    21   ar
    12    21    22   ar
    13    22    23    1
    14    22    24   ar
    15    24    25   ar
    16    25    26    1
    17     4     5   ar
    18     5     6   ar
    19    10    11    1
    20    11    12    2
    21    12    13    1
    22    13    14    1
    23    14    15    2
    24    15    16    1
    25    16    17    2
    26    17     8    1
    27     6     1   ar
    28    17    12    1
    29    25    19   ar
@<TRIPOS>MOLECULE
*****
 26 29 0 0 0
SMALL
GASTEIGER

@<TRIPOS>ATOM
      1 C          63.5515   86.9851   13.3171 C.ar    1  UNL1        0.0866
      2 C          64.2756   87.5329   14.5111 C.ar    1  UNL1        0.0106
      3 C          64.4899   89.0114   14.6450 C.ar    1  UNL1        0.0377
      4 C          63.9800   89.9422   13.5849 C.ar    1  UNL1        0.1453
      5 C          63.2559   89.3944   12.3910 C.ar    1  UNL1        0.0377
      6 C          63.0417   87.9159   12.2571 C.ar    1  UNL1        0.0106
      7 O          62.1998   82.4261   15.4119 O.2     1  UNL1       -0.2376
      8 C          62.6614   83.2270   14.2306 C.2     1  UNL1        0.3788
      9 N          62.8757   84.7056   14.3645 N.am    1  UNL1        0.0364
     10 C          63.3373   85.5065   13.1832 C.2     1  UNL1        0.3688
     11 N          63.5846   84.8289   11.8681 N.2     1  UNL1       -0.0400
     12 C          63.3703   83.3503   11.7341 C.2     1  UNL1        0.1818
     13 C          63.6176   82.6727   10.4190 C.3     1  UNL1        0.1000
     14 C          63.4034   81.1942   10.2851 C.2     1  UNL1       -0.0174
     15 C          62.9418   80.3932   11.4664 C.2     1  UNL1       -0.0038
     16 C          62.6944   81.0708   12.7815 C.2     1  UNL1        0.0101
     17 C          62.9087   82.5494   12.9154 C.2     1  UNL1        0.1209
     18 O          64.1943   91.4208   13.7188 O.3     1  UNL1       -0.4526
     19 C          65.5018   91.9456   14.2335 C.ar    1  UNL1        0.1558
     20 C          66.6612   92.1187   13.2976 C.ar    1  UNL1        0.0392
     21 C          67.9687   92.6435   13.8122 C.ar    1  UNL1        0.0146
     22 C          68.1170   92.9951   15.2629 C.ar    1  UNL1        0.0587
     23 CL         69.4245   93.5199   15.7776 Cl      1  UNL1       -0.0822
     24 C          66.9576   92.8220   16.1989 C.ar    1  UNL1        0.0259
     25 C          65.6501   92.2972   15.6841 C.ar    1  UNL1        0.0929
     26 CL         64.4907   92.1240   16.6201 Cl      1  UNL1       -0.0790
@<TRIPOS>BOND
     1     7     8    2
     2     8     9    1
     3     9    10    2
     4    10     1    1
     5     1     2   ar
     6     2     3   ar
     7     3     4   ar
     8     4    18    1
     9    18    19    1
    10    19    20   ar
    11    20    21   ar
    12    21    22   ar
    13    22    23    1
    14    22    24   ar
    15    24    25   ar
    16    25    26    1
    17     4     5   ar
    18     5     6   ar
    19    10    11    1
    20    11    12    2
    21    12    13    1
    22    13    14    1
    23    14    15    2
    24    15    16    1
    25    16    17    2
    26    17     8    1
    27     6     1   ar
    28    17    12    1
    29    25    19   ar
@<TRIPOS>MOLECULE
*****
 26 29 0 0 0
SMALL
GASTEIGER

@<TRIPOS>ATOM
      1 C          63.6540   90.3336   12.0564 C.ar    1  UNL1        0.0866
      2 C          62.7954   90.7799   10.9103 C.ar    1  UNL1        0.0106
      3 C          61.8017   89.8335   10.3046 C.ar    1  UNL1        0.0377
      4 C          61.6666   88.4408   10.8451 C.ar    1  UNL1        0.1453
      5 C          62.5252   87.9945   11.9912 C.ar    1  UNL1        0.0377
      6 C          63.5189   88.9409   12.5968 C.ar    1  UNL1        0.0106
      7 O          66.1792   94.8739   11.9632 O.2     1  UNL1       -0.2376
      8 C          65.9103   93.5502   12.6155 C.2     1  UNL1        0.3788
      9 N          64.9166   92.6038   12.0098 N.am    1  UNL1        0.0364
     10 C          64.6477   91.2801   12.6621 C.2     1  UNL1        0.3688
     11 N          65.3725   90.9027   13.9199 N.2     1  UNL1       -0.0400
     12 C          66.3662   91.8492   14.5256 C.2     1  UNL1        0.1818
     13 C          67.0910   91.4719   15.7835 C.3     1  UNL1        0.1000
     14 C          68.0847   92.4183   16.3892 C.2     1  UNL1       -0.0174
     15 C          68.3536   93.7420   15.7369 C.2     1  UNL1       -0.0038
     16 C          67.6288   94.1193   14.4790 C.2     1  UNL1        0.0101
     17 C          66.6352   93.1729   13.8734 C.2     1  UNL1        0.1209
     18 O          60.6729   87.4943   10.2394 O.3     1  UNL1       -0.4526
     19 C          61.0729   86.6246    9.0846 C.ar    1  UNL1        0.1558
     20 C          62.4545   86.0434    9.0268 C.ar    1  UNL1        0.0392
     21 C          62.8546   85.1737    7.8721 C.ar    1  UNL1        0.0146
     22 C          61.8730   84.8851    6.7750 C.ar    1  UNL1        0.0587
     23 CL         62.2731   84.0154    5.6203 Cl      1  UNL1       -0.0822
     24 C          60.4914   85.4663    6.8329 C.ar    1  UNL1        0.0259
     25 C          60.0914   86.3361    7.9877 C.ar    1  UNL1        0.0929
     26 CL         58.7098   86.9173    8.0455 Cl      1  UNL1       -0.0790
@<TRIPOS>BOND
     1     7     8    2
     2     8     9    1
     3     9    10    2
     4    10     1    1
     5     1     2   ar
     6     2     3   ar
     7     3     4   ar
     8     4    18    1
     9    18    19    1
    10    19    20   ar
    11    20    21   ar
    12    21    22   ar
    13    22    23    1
    14    22    24   ar
    15    24    25   ar
    16    25    26    1
    17     4     5   ar
    18     5     6   ar
    19    10    11    1
    20    11    12    2
    21    12    13    1
    22    13    14    1
    23    14    15    2
    24    15    16    1
    25    16    17    2
    26    17     8    1
    27     6     1   ar
    28    17    12    1
    29    25    19   ar
@<TRIPOS>MOLECULE
*****
 26 29 0 0 0
SMALL
GASTEIGER

@<TRIPOS>ATOM
      1 C          63.3527   86.4999   12.7802 C.ar    1  UNL1        0.0866
      2 C          64.0709   87.0833   13.9608 C.ar    1  UNL1        0.0106
      3 C          64.1551   88.5717   14.1268 C.ar    1  UNL1        0.0377
      4 C          63.5211   89.4766   13.1124 C.ar    1  UNL1        0.1453
      5 C          62.8029   88.8932   11.9318 C.ar    1  UNL1        0.0377
      6 C          62.7187   87.4048   11.7658 C.ar    1  UNL1        0.0106
      7 O          64.5688   82.1902   10.1444 O.2     1  UNL1       -0.2376
      8 C          63.8765   82.8567   11.2962 C.2     1  UNL1        0.3788
      9 N          63.9607   84.3450   11.4623 N.am    1  UNL1        0.0364
     10 C          63.2684   85.0115   12.6141 C.2     1  UNL1        0.3688
     11 N          62.4919   84.1896   13.5997 N.2     1  UNL1       -0.0400
     12 C          62.4076   82.7011   13.4336 C.2     1  UNL1        0.1818
     13 C          61.6311   81.8792   14.4192 C.3     1  UNL1        0.1000
     14 C          61.5469   80.3909   14.2530 C.2     1  UNL1       -0.0174
     15 C          62.2392   79.7244   13.1013 C.2     1  UNL1       -0.0038
     16 C          63.0157   80.5463   12.1157 C.2     1  UNL1        0.0101
     17 C          63.0999   82.0347   12.2818 C.2     1  UNL1        0.1209
     18 O          63.6053   90.9651   13.2785 O.3     1  UNL1       -0.4526
     19 C          64.6184   91.7505   12.4996 C.ar    1  UNL1        0.1558
     20 C          65.8448   92.2786   13.1829 C.ar    1  UNL1        0.0392
     21 C          66.8579   93.0641   12.4040 C.ar    1  UNL1        0.0146
     22 C          66.6446   93.3214   10.9417 C.ar    1  UNL1        0.0587
     23 CL         67.6576   94.1069   10.1628 Cl      1  UNL1       -0.0822
     24 C          65.4182   92.7933   10.2583 C.ar    1  UNL1        0.0259
     25 C          64.4051   92.0078   11.0373 C.ar    1  UNL1        0.0929
     26 CL         63.1786   91.4797   10.3540 Cl      1  UNL1       -0.0790
@<TRIPOS>BOND
     1     7     8    2
     2     8     9    1
     3     9    10    2
     4    10     1    1
     5     1     2   ar
     6     2     3   ar
     7     3     4   ar
     8     4    18    1
     9    18    19    1
    10    19    20   ar
    11    20    21   ar
    12    21    22   ar
    13    22    23    1
    14    22    24   ar
    15    24    25   ar
    16    25    26    1
    17     4     5   ar
    18     5     6   ar
    19    10    11    1
    20    11    12    2
    21    12    13    1
    22    13    14    1
    23    14    15    2
    24    15    16    1
    25    16    17    2
    26    17     8    1
    27     6     1   ar
    28    17    12    1
    29    25    19   ar
@<TRIPOS>MOLECULE
*****
 26 29 0 0 0
SMALL
GASTEIGER

@<TRIPOS>ATOM
      1 C          63.5516   87.2130   13.2790 C.ar    1  UNL1        0.0866
      2 C          63.0126   88.0350   12.1460 C.ar    1  UNL1        0.0106
      3 C          63.2116   89.5217   12.1370 C.ar    1  UNL1        0.0377
      4 C          63.9496   90.1864   13.2611 C.ar    1  UNL1        0.1453
      5 C          64.4886   89.3644   14.3941 C.ar    1  UNL1        0.0377
      6 C          64.2896   87.8777   14.4031 C.ar    1  UNL1        0.0106
      7 O          62.5909   82.8172   15.8779 O.2     1  UNL1       -0.2376
      8 C          62.8722   83.5284   14.5875 C.2     1  UNL1        0.3788
      9 N          63.0712   85.0151   14.5784 N.am    1  UNL1        0.0364
     10 C          63.3526   85.7263   13.2881 C.2     1  UNL1        0.3688
     11 N          63.4349   84.9508   12.0068 N.2     1  UNL1       -0.0400
     12 C          63.2359   83.4640   12.0158 C.2     1  UNL1        0.1818
     13 C          63.3183   82.6885   10.7345 C.3     1  UNL1        0.1000
     14 C          63.1193   81.2018   10.7435 C.2     1  UNL1       -0.0174
     15 C          62.8379   80.4906   12.0339 C.2     1  UNL1       -0.0038
     16 C          62.7556   81.2661   13.3152 C.2     1  UNL1        0.0101
     17 C          62.9546   82.7528   13.3061 C.2     1  UNL1        0.1209
     18 O          64.1486   91.6732   13.2521 O.3     1  UNL1       -0.4526
     19 C          65.1278   92.2930   12.2998 C.ar    1  UNL1        0.1558
     20 C          64.6715   92.7471   10.9449 C.ar    1  UNL1        0.0392
     21 C          65.6507   93.3670    9.9926 C.ar    1  UNL1        0.0146
     22 C          67.0862   93.5328   10.3952 C.ar    1  UNL1        0.0587
     23 CL         68.0654   94.1526    9.4429 Cl      1  UNL1       -0.0822
     24 C          67.5424   93.0787   11.7500 C.ar    1  UNL1        0.0259
     25 C          66.5632   92.4588   12.7024 C.ar    1  UNL1        0.0929
     26 CL         67.0194   92.0046   14.0572 Cl      1  UNL1       -0.0790
@<TRIPOS>BOND
     1     7     8    2
     2     8     9    1
     3     9    10    2
     4    10     1    1
     5     1     2   ar
     6     2     3   ar
     7     3     4   ar
     8     4    18    1
     9    18    19    1
    10    19    20   ar
    11    20    21   ar
    12    21    22   ar
    13    22    23    1
    14    22    24   ar
    15    24    25   ar
    16    25    26    1
    17     4     5   ar
    18     5     6   ar
    19    10    11    1
    20    11    12    2
    21    12    13    1
    22    13    14    1
    23    14    15    2
    24    15    16    1
    25    16    17    2
    26    17     8    1
    27     6     1   ar
    28    17    12    1
    29    25    19   ar
@<TRIPOS>MOLECULE
*****
 26 29 0 0 0
SMALL
GASTEIGER

@<TRIPOS>ATOM
      1 C          64.3528   89.2557   14.1459 C.ar    1  UNL1        0.0866
      2 C          63.6969   89.9536   12.9915 C.ar    1  UNL1        0.0106
      3 C          64.1281   91.3385   12.6093 C.ar    1  UNL1        0.0377
      4 C          65.2152   92.0254   13.3815 C.ar    1  UNL1        0.1453
      5 C          65.8711   91.3275   14.5359 C.ar    1  UNL1        0.0377
      6 C          65.4399   89.9426   14.9181 C.ar    1  UNL1        0.0106
      7 O          62.6973   85.8896   17.7415 O.2     1  UNL1       -0.2376
      8 C          63.0938   86.1877   16.3259 C.2     1  UNL1        0.3788
      9 N          63.5250   87.5726   15.9437 N.am    1  UNL1        0.0364
     10 C          63.9216   87.8707   14.5281 C.2     1  UNL1        0.3688
     11 N          63.8869   86.7840   13.4948 N.2     1  UNL1       -0.0400
     12 C          63.4557   85.3990   13.8770 C.2     1  UNL1        0.1818
     13 C          63.4210   84.3123   12.8437 C.3     1  UNL1        0.1000
     14 C          62.9898   82.9275   13.2260 C.2     1  UNL1       -0.0174
     15 C          62.5933   82.6293   14.6416 C.2     1  UNL1       -0.0038
     16 C          62.6280   83.7160   15.6749 C.2     1  UNL1        0.0101
     17 C          63.0592   85.1009   15.2926 C.2     1  UNL1        0.1209
     18 O          65.6465   93.4104   12.9992 O.3     1  UNL1       -0.4526
     19 C          66.3077   93.6512   11.6746 C.ar    1  UNL1        0.1558
     20 C          66.8621   92.4977   10.8923 C.ar    1  UNL1        0.0392
     21 C          67.5234   92.7385    9.5677 C.ar    1  UNL1        0.0146
     22 C          67.6303   94.1330    9.0253 C.ar    1  UNL1        0.0587
     23 CL         68.2916   94.3738    7.7007 Cl      1  UNL1       -0.0822
     24 C          67.0759   95.2865    9.8076 C.ar    1  UNL1        0.0259
     25 C          66.4146   95.0456   11.1323 C.ar    1  UNL1        0.0929
     26 CL         65.8603   96.1992   11.9146 Cl      1  UNL1       -0.0790
@<TRIPOS>BOND
     1     7     8    2
     2     8     9    1
     3     9    10    2
     4    10     1    1
     5     1     2   ar
     6     2     3   ar
     7     3     4   ar
     8     4    18    1
     9    18    19    1
    10    19    20   ar
    11    20    21   ar
    12    21    22   ar
    13    22    23    1
    14    22    24   ar
    15    24    25   ar
    16    25    26    1
    17     4     5   ar
    18     5     6   ar
    19    10    11    1
    20    11    12    2
    21    12    13    1
    22    13    14    1
    23    14    15    2
    24    15    16    1
    25    16    17    2
    26    17     8    1
    27     6     1   ar
    28    17    12    1
    29    25    19   ar
@<TRIPOS>MOLECULE
*****
 26 29 0 0 0
SMALL
GASTEIGER

@<TRIPOS>ATOM
      1 C          65.3714   91.5818   12.6093 C.ar    1  UNL1        0.0866
      2 C          64.0599   90.8997   12.3549 C.ar    1  UNL1        0.0106
      3 C          63.4625   90.0083   13.4029 C.ar    1  UNL1        0.0377
      4 C          64.1765   89.7990   14.7054 C.ar    1  UNL1        0.1453
      5 C          65.4880   90.4811   14.9598 C.ar    1  UNL1        0.0377
      6 C          66.0854   91.3725   13.9117 C.ar    1  UNL1        0.0106
      7 O          69.0967   92.5546    9.1199 O.2     1  UNL1       -0.2376
      8 C          67.8315   92.9596    9.8165 C.2     1  UNL1        0.3788
      9 N          67.2340   92.0682   10.8646 N.am    1  UNL1        0.0364
     10 C          65.9689   92.4733   11.5612 C.2     1  UNL1        0.3688
     11 N          65.3012   93.7697   11.2099 N.2     1  UNL1       -0.0400
     12 C          65.8987   94.6612   10.1618 C.2     1  UNL1        0.1818
     13 C          65.2311   95.9576    9.8104 C.3     1  UNL1        0.1000
     14 C          65.8286   96.8490    8.7624 C.2     1  UNL1       -0.0174
     15 C          67.0937   96.4439    8.0658 C.2     1  UNL1       -0.0038
     16 C          67.7614   95.1475    8.4171 C.2     1  UNL1        0.0101
     17 C          67.1639   94.2561    9.4651 C.2     1  UNL1        0.1209
     18 O          63.5790   88.9076   15.7534 O.3     1  UNL1       -0.4526
     19 C          63.6768   87.4172   15.6150 C.ar    1  UNL1        0.1558
     20 C          64.3061   86.8172   14.3926 C.ar    1  UNL1        0.0392
     21 C          64.4039   85.3269   14.2542 C.ar    1  UNL1        0.0146
     22 C          63.8724   84.4364   15.3380 C.ar    1  UNL1        0.0587
     23 CL         63.9701   82.9460   15.1995 Cl      1  UNL1       -0.0822
     24 C          63.2431   85.0364   16.5603 C.ar    1  UNL1        0.0259
     25 C          63.1453   86.5268   16.6988 C.ar    1  UNL1        0.0929
     26 CL         62.5161   87.1268   17.9211 Cl      1  UNL1       -0.0790
@<TRIPOS>BOND
     1     7     8    2
     2     8     9    1
     3     9    10    2
     4    10     1    1
     5     1     2   ar
     6     2     3   ar
     7     3     4   ar
     8     4    18    1
     9    18    19    1
    10    19    20   ar
    11    20    21   ar
    12    21    22   ar
    13    22    23    1
    14    22    24   ar
    15    24    25   ar
    16    25    26    1
    17     4     5   ar
    18     5     6   ar
    19    10    11    1
    20    11    12    2
    21    12    13    1
    22    13    14    1
    23    14    15    2
    24    15    16    1
    25    16    17    2
    26    17     8    1
    27     6     1   ar
    28    17    12    1
    29    25    19   ar
@<TRIPOS>MOLECULE
*****
 26 29 0 0 0
SMALL
GASTEIGER

@<TRIPOS>ATOM
      1 C          64.2265   89.5568   13.0961 C.ar    1  UNL1        0.0866
      2 C          65.1335   90.0465   14.1859 C.ar    1  UNL1        0.0106
      3 C          65.6139   91.4675   14.1798 C.ar    1  UNL1        0.0377
      4 C          65.1873   92.3987   13.0840 C.ar    1  UNL1        0.1453
      5 C          64.2803   91.9090   11.9942 C.ar    1  UNL1        0.0377
      6 C          63.7999   90.4880   12.0003 C.ar    1  UNL1        0.0106
      7 O          61.4722   85.7285   10.9149 O.2     1  UNL1       -0.2376
      8 C          62.3689   86.2217   12.0115 C.2     1  UNL1        0.3788
      9 N          62.8493   87.6426   12.0055 N.am    1  UNL1        0.0364
     10 C          63.7461   88.1358   13.1022 C.2     1  UNL1        0.3688
     11 N          64.1625   87.2080   14.2048 N.2     1  UNL1       -0.0400
     12 C          63.6820   85.7870   14.2108 C.2     1  UNL1        0.1818
     13 C          64.0984   84.8592   15.3135 C.3     1  UNL1        0.1000
     14 C          63.6180   83.4383   15.3195 C.2     1  UNL1       -0.0174
     15 C          62.7212   82.9451   14.2228 C.2     1  UNL1       -0.0038
     16 C          62.3048   83.8729   13.1202 C.2     1  UNL1        0.0101
     17 C          62.7853   85.2938   13.1142 C.2     1  UNL1        0.1209
     18 O          65.6677   93.8197   13.0779 O.3     1  UNL1       -0.4526
     19 C          66.1474   94.4438   11.8011 C.ar    1  UNL1        0.1558
     20 C          65.7229   95.8368   11.4414 C.ar    1  UNL1        0.0392
     21 C          66.2026   96.4609   10.1646 C.ar    1  UNL1        0.0146
     22 C          67.1068   95.6920    9.2474 C.ar    1  UNL1        0.0587
     23 CL         67.5865   96.3161    7.9705 Cl      1  UNL1       -0.0822
     24 C          67.5313   94.2990    9.6070 C.ar    1  UNL1        0.0259
     25 C          67.0516   93.6749   10.8840 C.ar    1  UNL1        0.0929
     26 CL         67.4760   92.2819   11.2436 Cl      1  UNL1       -0.0790
@<TRIPOS>BOND
     1     7     8    2
     2     8     9    1
     3     9    10    2
     4    10     1    1
     5     1     2   ar
     6     2     3   ar
     7     3     4   ar
     8     4    18    1
     9    18    19    1
    10    19    20   ar
    11    20    21   ar
    12    21    22   ar
    13    22    23    1
    14    22    24   ar
    15    24    25   ar
    16    25    26    1
    17     4     5   ar
    18     5     6   ar
    19    10    11    1
    20    11    12    2
    21    12    13    1
    22    13    14    1
    23    14    15    2
    24    15    16    1
    25    16    17    2
    26    17     8    1
    27     6     1   ar
    28    17    12    1
    29    25    19   ar
