@<TRIPOS>MOLECULE
*****
 37 40 0 0 0
SMALL
GASTEIGER

@<TRIPOS>ATOM
      1 C          65.1409   91.8064   13.4503 C.ar    1  UNL1        0.0596
      2 C          64.1241   90.7179   13.2736 C.ar    1  UNL1        0.0373
      3 C          63.3827   90.5875   11.9761 C.ar    1  UNL1        0.0782
      4 N          63.6582   91.5456   10.8553 N.ar    1  UNL1       -0.2479
      5 C          64.6751   92.6341   11.0320 C.ar    1  UNL1        0.0833
      6 C          64.9505   93.5922    9.9112 C.ar    1  UNL1        0.0192
      7 C          65.9674   94.6806   10.0879 C.ar    1  UNL1        0.0038
      8 C          66.7087   94.8110   11.3854 C.ar    1  UNL1        0.0297
      9 C          66.4332   93.8530   12.5061 C.ar    1  UNL1        0.1417
     10 F          67.1746   93.9833   13.8036 F       1  UNL1       -0.2041
     11 C          65.4164   92.7645   12.3294 C.ar    1  UNL1        0.0495
     12 C          63.8485   89.7598   14.3944 C.ar    1  UNL1        0.0826
     13 C          64.3692   88.3547   14.3250 C.ar    1  UNL1        0.0192
     14 C          64.0937   87.3966   15.4457 C.ar    1  UNL1        0.0031
     15 C          63.2976   87.8435   16.6358 C.ar    1  UNL1        0.0207
     16 C          62.7769   89.2485   16.7052 C.ar    1  UNL1        0.0988
     17 N          63.0524   90.2067   15.5845 N.ar    1  UNL1       -0.2438
     18 C          68.0641   91.6575   16.1303 C.3     1  UNL1        0.1109
     19 N          67.3228   91.5272   14.8328 N.am    1  UNL1       -0.2992
     20 C          65.8822   91.9367   14.7477 C.2     1  UNL1        0.2461
     21 O          65.1831   92.4767   15.9600 O.2     1  UNL1       -0.2701
     22 H          67.7816   91.1728   14.0372 H       1  UNL1        0.1498
     23 C          62.3658   89.4990   11.7995 C.3     1  UNL1        0.1110
     24 C          61.1203   89.4933   12.6354 C.3     1  UNL1        0.0278
     25 N          62.5944   88.4162   10.7870 N.pl3   1  UNL1       -0.3141
     26 H          63.3973   87.8494   10.8451 H       1  UNL1        0.1485
     27 C          61.5998   88.1969    9.6858 C.ar    1  UNL1        0.1429
     28 N          60.7332   89.3298    9.2213 N.ar    1  UNL1       -0.2084
     29 C          59.7386   89.1106    8.1202 C.ar    1  UNL1        0.2012
     30 N          59.6105   87.7585    7.4835 N.ar    1  UNL1       -0.2087
     31 C          60.4770   86.6256    7.9479 C.ar    1  UNL1        0.1396
     32 N          60.3488   85.2735    7.3112 N.pl3   1  UNL1       -0.3420
     33 C          61.4717   86.8448    9.0491 C.ar    1  UNL1        0.1308
     34 H          59.6960   85.1296    6.5885 H       1  UNL1        0.1437
     35 H          60.9175   84.5300    7.6161 H       1  UNL1        0.1437
     36 C          62.3382   85.7120    9.5136 C.1     1  UNL1        0.1061
     37 N          63.2047   84.5791    9.9780 N.1     1  UNL1       -0.1906
@<TRIPOS>BOND
     1    18    19    1
     2    19    20   am
     3    20    21    2
     4    20     1    1
     5     1     2   ar
     6     2    12    1
     7    12    13   ar
     8    13    14   ar
     9    14    15   ar
    10    15    16   ar
    11    16    17   ar
    12     2     3   ar
    13     3    23    1
    14    23    24    1
    15    23    25    1
    16    25    27    1
    17    27    28   ar
    18    28    29   ar
    19    29    30   ar
    20    30    31   ar
    21    31    32    1
    22    31    33   ar
    23    33    36    1
    24    36    37    3
    25     3     4   ar
    26     4     5   ar
    27     5     6   ar
    28     6     7   ar
    29     7     8   ar
    30     8     9   ar
    31     9    10    1
    32     9    11   ar
    33    11     1   ar
    34    17    12   ar
    35    33    27   ar
    36    11     5   ar
    37    19    22    1
    38    25    26    1
    39    32    34    1
    40    32    35    1
@<TRIPOS>MOLECULE
*****
 37 40 0 0 0
SMALL
GASTEIGER

@<TRIPOS>ATOM
      1 C          65.0852   91.6378   13.5591 C.ar    1  UNL1        0.0596
      2 C          64.0828   90.5302   13.4242 C.ar    1  UNL1        0.0373
      3 C          63.3473   90.3377   12.1311 C.ar    1  UNL1        0.0782
      4 N          63.6143   91.2527   10.9730 N.ar    1  UNL1       -0.2479
      5 C          64.6168   92.3604   11.1078 C.ar    1  UNL1        0.0833
      6 C          64.8838   93.2754    9.9496 C.ar    1  UNL1        0.0192
      7 C          65.8862   94.3830   10.0845 C.ar    1  UNL1        0.0038
      8 C          66.6217   94.5756   11.3776 C.ar    1  UNL1        0.0297
      9 C          66.3547   93.6606   12.5358 C.ar    1  UNL1        0.1417
     10 F          67.0902   93.8531   13.8288 F       1  UNL1       -0.2041
     11 C          65.3523   92.5530   12.4009 C.ar    1  UNL1        0.0495
     12 C          63.8157   89.6151   14.5824 C.ar    1  UNL1        0.0826
     13 C          62.9958   90.0945   15.7434 C.ar    1  UNL1        0.0192
     14 C          62.7288   89.1795   16.9016 C.ar    1  UNL1        0.0031
     15 C          63.2817   87.7851   16.8987 C.ar    1  UNL1        0.0207
     16 C          64.1016   87.3058   15.7377 C.ar    1  UNL1        0.0988
     17 N          64.3686   88.2208   14.5795 N.ar    1  UNL1       -0.2438
     18 C          68.0105   91.6681   16.2409 C.3     1  UNL1        0.1109
     19 N          67.2750   91.4755   14.9478 N.am    1  UNL1       -0.2992
     20 C          65.8207   91.8304   14.8521 C.2     1  UNL1        0.2461
     21 O          65.1019   92.3779   16.0494 O.2     1  UNL1       -0.2701
     22 H          67.7468   91.1162   14.1620 H       1  UNL1        0.1498
     23 C          62.3448   89.2300   11.9963 C.3     1  UNL1        0.1110
     24 C          60.9355   89.5397   11.5864 C.3     1  UNL1        0.0278
     25 N          62.7516   87.8127   12.2713 N.pl3   1  UNL1       -0.3141
     26 H          63.0249   87.5462   13.1788 H       1  UNL1        0.1485
     27 C          62.7419   86.8013   11.1636 C.ar    1  UNL1        0.1429
     28 N          62.4300   87.2290    9.7601 N.ar    1  UNL1       -0.2084
     29 C          62.4203   86.2177    8.6524 C.ar    1  UNL1        0.2012
     30 N          62.7225   84.7785    8.9482 N.ar    1  UNL1       -0.2087
     31 C          63.0344   84.3507   10.3516 C.ar    1  UNL1        0.1396
     32 N          63.3367   82.9116   10.6474 N.pl3   1  UNL1       -0.3420
     33 C          63.0441   85.3621   11.4594 C.ar    1  UNL1        0.1308
     34 H          63.3303   82.2477    9.9204 H       1  UNL1        0.1437
     35 H          63.5414   82.6308   11.5685 H       1  UNL1        0.1437
     36 C          63.3560   84.9343   12.8628 C.1     1  UNL1        0.1061
     37 N          63.6679   84.5066   14.2663 N.1     1  UNL1       -0.1906
@<TRIPOS>BOND
     1    18    19    1
     2    19    20   am
     3    20    21    2
     4    20     1    1
     5     1     2   ar
     6     2    12    1
     7    12    13   ar
     8    13    14   ar
     9    14    15   ar
    10    15    16   ar
    11    16    17   ar
    12     2     3   ar
    13     3    23    1
    14    23    24    1
    15    23    25    1
    16    25    27    1
    17    27    28   ar
    18    28    29   ar
    19    29    30   ar
    20    30    31   ar
    21    31    32    1
    22    31    33   ar
    23    33    36    1
    24    36    37    3
    25     3     4   ar
    26     4     5   ar
    27     5     6   ar
    28     6     7   ar
    29     7     8   ar
    30     8     9   ar
    31     9    10    1
    32     9    11   ar
    33    11     1   ar
    34    17    12   ar
    35    33    27   ar
    36    11     5   ar
    37    19    22    1
    38    25    26    1
    39    32    34    1
    40    32    35    1
@<TRIPOS>MOLECULE
*****
 37 40 0 0 0
SMALL
GASTEIGER

@<TRIPOS>ATOM
      1 C          63.0596   84.7898   12.0415 C.ar    1  UNL1        0.0596
      2 C          62.6751   85.9953   11.2360 C.ar    1  UNL1        0.0373
      3 C          62.8499   87.3692   11.8119 C.ar    1  UNL1        0.0782
      4 N          63.4092   87.5377   13.1935 N.ar    1  UNL1       -0.2479
      5 C          63.7937   86.3322   13.9992 C.ar    1  UNL1        0.0833
      6 C          64.3530   86.5007   15.3807 C.ar    1  UNL1        0.0192
      7 C          64.7375   85.2952   16.1863 C.ar    1  UNL1        0.0038
      8 C          64.5626   83.9213   15.6103 C.ar    1  UNL1        0.0297
      9 C          64.0033   83.7528   14.2288 C.ar    1  UNL1        0.1417
     10 F          63.8285   82.3789   13.6528 F       1  UNL1       -0.2041
     11 C          63.6189   84.9583   13.4232 C.ar    1  UNL1        0.0495
     12 C          62.1158   85.8269    9.8543 C.ar    1  UNL1        0.0826
     13 C          62.9971   85.3393    8.7427 C.ar    1  UNL1        0.0192
     14 C          62.4378   85.1709    7.3611 C.ar    1  UNL1        0.0031
     15 C          60.9973   85.4900    7.0911 C.ar    1  UNL1        0.0207
     16 C          60.1160   85.9776    8.2027 C.ar    1  UNL1        0.0988
     17 N          60.6752   86.1460    9.5843 N.ar    1  UNL1       -0.2438
     18 C          63.7764   81.4548   10.0133 C.3     1  UNL1        0.1109
     19 N          63.9513   82.8287   10.5893 N.am    1  UNL1       -0.2992
     20 C          62.8847   83.4159   11.4655 C.2     1  UNL1        0.2461
     21 O          61.6435   82.6292   11.7658 O.2     1  UNL1       -0.2701
     22 H          64.7660   83.3451   10.3922 H       1  UNL1        0.1498
     23 C          62.4654   88.5747   11.0063 C.3     1  UNL1        0.1110
     24 C          62.2826   88.4577    9.5221 C.3     1  UNL1        0.0278
     25 N          62.2639   89.8972   11.6848 N.pl3   1  UNL1       -0.3141
     26 H          61.3803   90.1341   12.0488 H       1  UNL1        0.1485
     27 C          63.4084   90.8587   11.8087 C.ar    1  UNL1        0.1429
     28 N          63.9546   91.5360   10.5868 N.ar    1  UNL1       -0.2084
     29 C          65.0992   92.4976   10.7108 C.ar    1  UNL1        0.2012
     30 N          65.6976   92.7818   12.0565 N.ar    1  UNL1       -0.2087
     31 C          65.1515   92.1045   13.2784 C.ar    1  UNL1        0.1396
     32 N          65.7499   92.3887   14.6242 N.pl3   1  UNL1       -0.3420
     33 C          64.0069   91.1429   13.1545 C.ar    1  UNL1        0.1308
     34 H          66.5012   93.0198   14.7055 H       1  UNL1        0.1437
     35 H          65.3915   91.9441   15.4261 H       1  UNL1        0.1437
     36 C          63.4607   90.4656   14.3763 C.1     1  UNL1        0.1061
     37 N          62.9146   89.7883   15.5982 N.1     1  UNL1       -0.1906
@<TRIPOS>BOND
     1    18    19    1
     2    19    20   am
     3    20    21    2
     4    20     1    1
     5     1     2   ar
     6     2    12    1
     7    12    13   ar
     8    13    14   ar
     9    14    15   ar
    10    15    16   ar
    11    16    17   ar
    12     2     3   ar
    13     3    23    1
    14    23    24    1
    15    23    25    1
    16    25    27    1
    17    27    28   ar
    18    28    29   ar
    19    29    30   ar
    20    30    31   ar
    21    31    32    1
    22    31    33   ar
    23    33    36    1
    24    36    37    3
    25     3     4   ar
    26     4     5   ar
    27     5     6   ar
    28     6     7   ar
    29     7     8   ar
    30     8     9   ar
    31     9    10    1
    32     9    11   ar
    33    11     1   ar
    34    17    12   ar
    35    33    27   ar
    36    11     5   ar
    37    19    22    1
    38    25    26    1
    39    32    34    1
    40    32    35    1
@<TRIPOS>MOLECULE
*****
 37 40 0 0 0
SMALL
GASTEIGER

@<TRIPOS>ATOM
      1 C          62.8331   86.0782   11.8435 C.ar    1  UNL1        0.0596
      2 C          62.9246   87.4682   12.3999 C.ar    1  UNL1        0.0373
      3 C          63.6343   87.7108   13.6989 C.ar    1  UNL1        0.0782
      4 N          64.2525   86.5635   14.4415 N.ar    1  UNL1       -0.2479
      5 C          64.1611   85.1735   13.8851 C.ar    1  UNL1        0.0833
      6 C          64.7793   84.0262   14.6276 C.ar    1  UNL1        0.0192
      7 C          64.6879   82.6363   14.0712 C.ar    1  UNL1        0.0038
      8 C          63.9782   82.3936   12.7722 C.ar    1  UNL1        0.0297
      9 C          63.3599   83.5409   12.0296 C.ar    1  UNL1        0.1417
     10 F          62.6502   83.2983   10.7306 F       1  UNL1       -0.2041
     11 C          63.4514   84.9308   12.5860 C.ar    1  UNL1        0.0495
     12 C          62.3063   88.6155   11.6573 C.ar    1  UNL1        0.0826
     13 C          62.9166   89.0939   10.3733 C.ar    1  UNL1        0.0192
     14 C          62.2984   90.2412    9.6307 C.ar    1  UNL1        0.0031
     15 C          61.0699   90.9102   10.1722 C.ar    1  UNL1        0.0207
     16 C          60.4596   90.4318   11.4562 C.ar    1  UNL1        0.0988
     17 N          61.0778   89.2845   12.1988 N.ar    1  UNL1       -0.2438
     18 C          62.2031   85.3306    7.9971 C.3     1  UNL1        0.1109
     19 N          62.9128   85.5732    9.2962 N.am    1  UNL1       -0.2992
     20 C          62.1234   85.8356   10.5444 C.2     1  UNL1        0.2461
     21 O          60.6244   85.8553   10.4937 O.2     1  UNL1       -0.2701
     22 H          63.8966   85.5603    9.3295 H       1  UNL1        0.1498
     23 C          63.7257   89.1008   14.2553 C.3     1  UNL1        0.1110
     24 C          63.4843   89.3413   15.7161 C.3     1  UNL1        0.0278
     25 N          64.0586   90.2503   13.3510 N.pl3   1  UNL1       -0.3141
     26 H          63.6770   90.2899   12.4443 H       1  UNL1        0.1485
     27 C          64.9729   91.3395   13.8281 C.ar    1  UNL1        0.1429
     28 N          65.4464   91.3515   15.2514 N.ar    1  UNL1       -0.2084
     29 C          66.3607   92.4407   15.7285 C.ar    1  UNL1        0.2012
     30 N          66.8016   93.5179   14.7824 N.ar    1  UNL1       -0.2087
     31 C          66.3281   93.5060   13.3591 C.ar    1  UNL1        0.1396
     32 N          66.7690   94.5832   12.4130 N.pl3   1  UNL1       -0.3420
     33 C          65.4138   92.4167   12.8820 C.ar    1  UNL1        0.1308
     34 H          67.3691   95.2981   12.7261 H       1  UNL1        0.1437
     35 H          66.4583   94.5754   11.4788 H       1  UNL1        0.1437
     36 C          64.9404   92.4048   11.4587 C.1     1  UNL1        0.1061
     37 N          64.4669   92.3928   10.0355 N.1     1  UNL1       -0.1906
@<TRIPOS>BOND
     1    18    19    1
     2    19    20   am
     3    20    21    2
     4    20     1    1
     5     1     2   ar
     6     2    12    1
     7    12    13   ar
     8    13    14   ar
     9    14    15   ar
    10    15    16   ar
    11    16    17   ar
    12     2     3   ar
    13     3    23    1
    14    23    24    1
    15    23    25    1
    16    25    27    1
    17    27    28   ar
    18    28    29   ar
    19    29    30   ar
    20    30    31   ar
    21    31    32    1
    22    31    33   ar
    23    33    36    1
    24    36    37    3
    25     3     4   ar
    26     4     5   ar
    27     5     6   ar
    28     6     7   ar
    29     7     8   ar
    30     8     9   ar
    31     9    10    1
    32     9    11   ar
    33    11     1   ar
    34    17    12   ar
    35    33    27   ar
    36    11     5   ar
    37    19    22    1
    38    25    26    1
    39    32    34    1
    40    32    35    1
@<TRIPOS>MOLECULE
*****
 37 40 0 0 0
SMALL
GASTEIGER

@<TRIPOS>ATOM
      1 C          65.0545   91.6596   13.5008 C.ar    1  UNL1        0.0596
      2 C          64.0473   90.5571   13.3595 C.ar    1  UNL1        0.0373
      3 C          63.3282   90.3605   12.0579 C.ar    1  UNL1        0.0782
      4 N          63.6163   91.2663   10.8976 N.ar    1  UNL1       -0.2479
      5 C          64.6236   92.3689   11.0388 C.ar    1  UNL1        0.0833
      6 C          64.9117   93.2747    9.8785 C.ar    1  UNL1        0.0192
      7 C          65.9189   94.3772   10.0198 C.ar    1  UNL1        0.0038
      8 C          66.6380   94.5739   11.3214 C.ar    1  UNL1        0.0297
      9 C          66.3499   93.6680   12.4817 C.ar    1  UNL1        0.1417
     10 F          67.0690   93.8647   13.7834 F       1  UNL1       -0.2041
     11 C          65.3427   92.5655   12.3405 C.ar    1  UNL1        0.0495
     12 C          63.7592   89.6512   14.5199 C.ar    1  UNL1        0.0826
     13 C          64.5091   88.3606   14.6681 C.ar    1  UNL1        0.0192
     14 C          64.2210   87.4547   15.8283 C.ar    1  UNL1        0.0031
     15 C          63.1830   87.8394   16.8405 C.ar    1  UNL1        0.0207
     16 C          62.4331   89.1300   16.6923 C.ar    1  UNL1        0.0988
     17 N          62.7212   90.0359   15.5320 N.ar    1  UNL1       -0.2438
     18 C          67.9532   91.7274   16.2107 C.3     1  UNL1        0.1109
     19 N          67.2341   91.5308   14.9091 N.am    1  UNL1       -0.2992
     20 C          65.7737   91.8563   14.8024 C.2     1  UNL1        0.2461
     21 O          65.0324   92.3784   15.9974 O.2     1  UNL1       -0.2701
     22 H          67.7206   91.1881   14.1248 H       1  UNL1        0.1498
     23 C          62.3209   89.2580   11.9167 C.3     1  UNL1        0.1110
     24 C          61.0435   89.3041   12.7015 C.3     1  UNL1        0.0278
     25 N          62.5911   88.1093   10.9906 N.pl3   1  UNL1       -0.3141
     26 H          62.6144   88.2566   10.0175 H       1  UNL1        0.1485
     27 C          62.8259   86.7364   11.5473 C.ar    1  UNL1        0.1429
     28 N          63.2740   86.5701   12.9691 N.ar    1  UNL1       -0.2084
     29 C          63.5088   85.1972   13.5258 C.ar    1  UNL1        0.2012
     30 N          63.2956   83.9905   12.6606 N.ar    1  UNL1       -0.2087
     31 C          62.8476   84.1568   11.2388 C.ar    1  UNL1        0.1396
     32 N          62.6343   82.9501   10.3737 N.pl3   1  UNL1       -0.3420
     33 C          62.6127   85.5298   10.6821 C.ar    1  UNL1        0.1308
     34 H          62.7884   82.0490   10.7390 H       1  UNL1        0.1437
     35 H          62.3403   83.0593    9.4405 H       1  UNL1        0.1437
     36 C          62.1647   85.6960    9.2603 C.1     1  UNL1        0.1061
     37 N          61.7167   85.8623    7.8385 N.1     1  UNL1       -0.1906
@<TRIPOS>BOND
     1    18    19    1
     2    19    20   am
     3    20    21    2
     4    20     1    1
     5     1     2   ar
     6     2    12    1
     7    12    13   ar
     8    13    14   ar
     9    14    15   ar
    10    15    16   ar
    11    16    17   ar
    12     2     3   ar
    13     3    23    1
    14    23    24    1
    15    23    25    1
    16    25    27    1
    17    27    28   ar
    18    28    29   ar
    19    29    30   ar
    20    30    31   ar
    21    31    32    1
    22    31    33   ar
    23    33    36    1
    24    36    37    3
    25     3     4   ar
    26     4     5   ar
    27     5     6   ar
    28     6     7   ar
    29     7     8   ar
    30     8     9   ar
    31     9    10    1
    32     9    11   ar
    33    11     1   ar
    34    17    12   ar
    35    33    27   ar
    36    11     5   ar
    37    19    22    1
    38    25    26    1
    39    32    34    1
    40    32    35    1
@<TRIPOS>MOLECULE
*****
 37 40 0 0 0
SMALL
GASTEIGER

@<TRIPOS>ATOM
      1 C          62.8599   89.1344   11.7383 C.ar    1  UNL1        0.0596
      2 C          63.5058   88.7389   13.0330 C.ar    1  UNL1        0.0373
      3 C          63.5474   87.2959   13.4404 C.ar    1  UNL1        0.0782
      4 N          62.9431   86.2483   12.5530 N.ar    1  UNL1       -0.2479
      5 C          62.2971   86.6438   11.2582 C.ar    1  UNL1        0.0833
      6 C          61.6928   85.5963   10.3709 C.ar    1  UNL1        0.0192
      7 C          61.0469   85.9917    9.0762 C.ar    1  UNL1        0.0038
      8 C          61.0052   87.4348    8.6688 C.ar    1  UNL1        0.0297
      9 C          61.6096   88.4823    9.5562 C.ar    1  UNL1        0.1417
     10 F          61.5680   89.9253    9.1488 F       1  UNL1       -0.2041
     11 C          62.2555   88.0868   10.8509 C.ar    1  UNL1        0.0495
     12 C          64.1102   89.7865   13.9204 C.ar    1  UNL1        0.0826
     13 C          65.5230   90.2367   13.6944 C.ar    1  UNL1        0.0192
     14 C          66.1274   91.2842   14.5817 C.ar    1  UNL1        0.0031
     15 C          65.3189   91.8815   15.6951 C.ar    1  UNL1        0.0207
     16 C          63.9061   91.4312   15.9211 C.ar    1  UNL1        0.0988
     17 N          63.3017   90.3837   15.0338 N.ar    1  UNL1       -0.2438
     18 C          63.9951   92.6695   10.3367 C.3     1  UNL1        0.1109
     19 N          64.0367   91.2265   10.7441 N.am    1  UNL1       -0.2992
     20 C          62.8183   90.5774   11.3309 C.2     1  UNL1        0.2461
     21 O          61.5584   91.3713   11.5103 O.2     1  UNL1       -0.2701
     22 H          64.8636   90.7054   10.6263 H       1  UNL1        0.1498
     23 C          64.1934   86.9004   14.7352 C.3     1  UNL1        0.1110
     24 C          63.9946   87.7426   15.9604 C.3     1  UNL1        0.0278
     25 N          65.0381   85.6629   14.8046 N.pl3   1  UNL1       -0.3141
     26 H          65.9332   85.7001   15.2129 H       1  UNL1        0.1485
     27 C          64.5190   84.3686   14.2521 C.ar    1  UNL1        0.1429
     28 N          65.2948   83.6394   13.1953 N.ar    1  UNL1       -0.2084
     29 C          64.7757   82.3452   12.6427 C.ar    1  UNL1        0.2012
     30 N          63.4809   81.7800   13.1468 N.ar    1  UNL1       -0.2087
     31 C          62.7052   82.5090   14.2036 C.ar    1  UNL1        0.1396
     32 N          61.4105   81.9438   14.7077 N.pl3   1  UNL1       -0.3420
     33 C          63.2243   83.8034   14.7562 C.ar    1  UNL1        0.1308
     34 H          61.0698   81.0943   14.3450 H       1  UNL1        0.1437
     35 H          60.9014   82.4224   15.4013 H       1  UNL1        0.1437
     36 C          62.4486   84.5325   15.8129 C.1     1  UNL1        0.1061
     37 N          61.6729   85.2615   16.8696 N.1     1  UNL1       -0.1906
@<TRIPOS>BOND
     1    18    19    1
     2    19    20   am
     3    20    21    2
     4    20     1    1
     5     1     2   ar
     6     2    12    1
     7    12    13   ar
     8    13    14   ar
     9    14    15   ar
    10    15    16   ar
    11    16    17   ar
    12     2     3   ar
    13     3    23    1
    14    23    24    1
    15    23    25    1
    16    25    27    1
    17    27    28   ar
    18    28    29   ar
    19    29    30   ar
    20    30    31   ar
    21    31    32    1
    22    31    33   ar
    23    33    36    1
    24    36    37    3
    25     3     4   ar
    26     4     5   ar
    27     5     6   ar
    28     6     7   ar
    29     7     8   ar
    30     8     9   ar
    31     9    10    1
    32     9    11   ar
    33    11     1   ar
    34    17    12   ar
    35    33    27   ar
    36    11     5   ar
    37    19    22    1
    38    25    26    1
    39    32    34    1
    40    32    35    1
@<TRIPOS>MOLECULE
*****
 37 40 0 0 0
SMALL
GASTEIGER

@<TRIPOS>ATOM
      1 C          64.4371   91.3961   12.2248 C.ar    1  UNL1        0.0596
      2 C          64.5948   90.8784   13.6238 C.ar    1  UNL1        0.0373
      3 C          63.6508   89.8379   14.1493 C.ar    1  UNL1        0.0782
      4 N          62.5491   89.3151   13.2760 N.ar    1  UNL1       -0.2479
      5 C          62.3914   89.8327   11.8769 C.ar    1  UNL1        0.0833
      6 C          61.2897   89.3099   11.0035 C.ar    1  UNL1        0.0192
      7 C          61.1320   89.8275    9.6046 C.ar    1  UNL1        0.0038
      8 C          62.0760   90.8680    9.0790 C.ar    1  UNL1        0.0297
      9 C          63.1777   91.3909    9.9524 C.ar    1  UNL1        0.1417
     10 F          64.1217   92.4314    9.4268 F       1  UNL1       -0.2041
     11 C          63.3354   90.8732   11.3513 C.ar    1  UNL1        0.0495
     12 C          65.6966   91.4013   14.4972 C.ar    1  UNL1        0.0826
     13 C          67.1116   90.9620   14.2633 C.ar    1  UNL1        0.0192
     14 C          68.2133   91.4848   15.1367 C.ar    1  UNL1        0.0031
     15 C          67.9000   92.4469   16.2440 C.ar    1  UNL1        0.0207
     16 C          66.4850   92.8862   16.4779 C.ar    1  UNL1        0.0988
     17 N          65.3833   92.3634   15.6045 N.ar    1  UNL1       -0.2438
     18 C          66.1828   94.9062   11.6067 C.3     1  UNL1        0.1109
     19 N          65.2388   93.8657   12.1323 N.am    1  UNL1       -0.2992
     20 C          65.3811   92.4366   11.6992 C.2     1  UNL1        0.2461
     21 O          66.4674   92.0480   10.7407 O.2     1  UNL1       -0.2701
     22 H          64.5258   94.1207   12.7614 H       1  UNL1        0.1498
     23 C          63.8086   89.3203   15.5484 C.3     1  UNL1        0.1110
     24 C          63.1981   90.0666   16.6975 C.3     1  UNL1        0.0278
     25 N          64.5768   88.0564   15.7983 N.pl3   1  UNL1       -0.3141
     26 H          65.3828   88.0739   16.3632 H       1  UNL1        0.1485
     27 C          64.1168   86.7660   15.1874 C.ar    1  UNL1        0.1429
     28 N          64.4858   86.4326   13.7722 N.ar    1  UNL1       -0.2084
     29 C          64.0259   85.1422   13.1613 C.ar    1  UNL1        0.2012
     30 N          63.1970   84.1851   13.9655 N.ar    1  UNL1       -0.2087
     31 C          62.8279   84.5185   15.3807 C.ar    1  UNL1        0.1396
     32 N          61.9990   83.5614   16.1849 N.pl3   1  UNL1       -0.3420
     33 C          63.2879   85.8089   15.9916 C.ar    1  UNL1        0.1308
     34 H          61.6971   82.7144   15.7840 H       1  UNL1        0.1437
     35 H          61.7568   83.7802   17.1138 H       1  UNL1        0.1437
     36 C          62.9189   86.1423   17.4068 C.1     1  UNL1        0.1061
     37 N          62.5498   86.4756   18.8219 N.1     1  UNL1       -0.1906
@<TRIPOS>BOND
     1    18    19    1
     2    19    20   am
     3    20    21    2
     4    20     1    1
     5     1     2   ar
     6     2    12    1
     7    12    13   ar
     8    13    14   ar
     9    14    15   ar
    10    15    16   ar
    11    16    17   ar
    12     2     3   ar
    13     3    23    1
    14    23    24    1
    15    23    25    1
    16    25    27    1
    17    27    28   ar
    18    28    29   ar
    19    29    30   ar
    20    30    31   ar
    21    31    32    1
    22    31    33   ar
    23    33    36    1
    24    36    37    3
    25     3     4   ar
    26     4     5   ar
    27     5     6   ar
    28     6     7   ar
    29     7     8   ar
    30     8     9   ar
    31     9    10    1
    32     9    11   ar
    33    11     1   ar
    34    17    12   ar
    35    33    27   ar
    36    11     5   ar
    37    19    22    1
    38    25    26    1
    39    32    34    1
    40    32    35    1
@<TRIPOS>MOLECULE
*****
 37 40 0 0 0
SMALL
GASTEIGER

@<TRIPOS>ATOM
      1 C          65.3153   91.8913   13.1572 C.ar    1  UNL1        0.0596
      2 C          64.1596   90.9454   13.0172 C.ar    1  UNL1        0.0373
      3 C          63.3053   90.9821   11.7847 C.ar    1  UNL1        0.0782
      4 N          63.6068   91.9648   10.6923 N.ar    1  UNL1       -0.2479
      5 C          64.7625   92.9107   10.8322 C.ar    1  UNL1        0.0833
      6 C          65.0640   93.8933    9.7397 C.ar    1  UNL1        0.0192
      7 C          66.2197   94.8392    9.8797 C.ar    1  UNL1        0.0038
      8 C          67.0739   94.8025   11.1122 C.ar    1  UNL1        0.0297
      9 C          66.7725   93.8199   12.2047 C.ar    1  UNL1        0.1417
     10 F          67.6267   93.7831   13.4371 F       1  UNL1       -0.2041
     11 C          65.6168   92.8740   12.0647 C.ar    1  UNL1        0.0495
     12 C          63.8581   89.9627   14.1097 C.ar    1  UNL1        0.0826
     13 C          64.2417   88.5215   13.9490 C.ar    1  UNL1        0.0192
     14 C          63.9402   87.5389   15.0414 C.ar    1  UNL1        0.0031
     15 C          63.2551   87.9974   16.2945 C.ar    1  UNL1        0.0207
     16 C          62.8714   89.4386   16.4552 C.ar    1  UNL1        0.0988
     17 N          63.1729   90.4212   15.3628 N.ar    1  UNL1       -0.2438
     18 C          66.6445   92.6341   16.8221 C.3     1  UNL1        0.1109
     19 N          65.7902   92.6709   15.5896 N.am    1  UNL1       -0.2992
     20 C          66.1695   91.8546   14.3896 C.2     1  UNL1        0.2461
     21 O          67.4029   91.0016   14.4221 O.2     1  UNL1       -0.2701
     22 H          64.9807   93.2307   15.5683 H       1  UNL1        0.1498
     23 C          62.1496   90.0362   11.6448 C.3     1  UNL1        0.1110
     24 C          61.3931   89.5913   12.8612 C.3     1  UNL1        0.0278
     25 N          61.7505   89.5352   10.2885 N.pl3   1  UNL1       -0.3141
     26 H          61.5541   90.1743    9.5658 H       1  UNL1        0.1485
     27 C          61.6505   88.0605   10.0332 C.ar    1  UNL1        0.1429
     28 N          62.3909   87.0955   10.9111 N.ar    1  UNL1       -0.2084
     29 C          62.2909   85.6208   10.6559 C.ar    1  UNL1        0.2012
     30 N          61.4506   85.1110    9.5228 N.ar    1  UNL1       -0.2087
     31 C          60.7103   86.0759    8.6449 C.ar    1  UNL1        0.1396
     32 N          59.8700   85.5661    7.5117 N.pl3   1  UNL1       -0.3420
     33 C          60.8102   87.5507    8.9001 C.ar    1  UNL1        0.1308
     34 H          59.8043   84.5982    7.3442 H       1  UNL1        0.1437
     35 H          59.3840   86.1995    6.9355 H       1  UNL1        0.1437
     36 C          60.0699   88.5156    8.0222 C.1     1  UNL1        0.1061
     37 N          59.3295   89.4806    7.1443 N.1     1  UNL1       -0.1906
@<TRIPOS>BOND
     1    18    19    1
     2    19    20   am
     3    20    21    2
     4    20     1    1
     5     1     2   ar
     6     2    12    1
     7    12    13   ar
     8    13    14   ar
     9    14    15   ar
    10    15    16   ar
    11    16    17   ar
    12     2     3   ar
    13     3    23    1
    14    23    24    1
    15    23    25    1
    16    25    27    1
    17    27    28   ar
    18    28    29   ar
    19    29    30   ar
    20    30    31   ar
    21    31    32    1
    22    31    33   ar
    23    33    36    1
    24    36    37    3
    25     3     4   ar
    26     4     5   ar
    27     5     6   ar
    28     6     7   ar
    29     7     8   ar
    30     8     9   ar
    31     9    10    1
    32     9    11   ar
    33    11     1   ar
    34    17    12   ar
    35    33    27   ar
    36    11     5   ar
    37    19    22    1
    38    25    26    1
    39    32    34    1
    40    32    35    1
@<TRIPOS>MOLECULE
*****
 37 40 0 0 0
SMALL
GASTEIGER

@<TRIPOS>ATOM
      1 C          63.0988   84.6389   12.1810 C.ar    1  UNL1        0.0596
      2 C          62.7173   85.8960   11.4572 C.ar    1  UNL1        0.0373
      3 C          62.9098   87.2292   12.1171 C.ar    1  UNL1        0.0782
      4 N          63.4839   87.3053   13.5008 N.ar    1  UNL1       -0.2479
      5 C          63.8655   86.0481   14.2246 C.ar    1  UNL1        0.0833
      6 C          64.4396   86.1242   15.6083 C.ar    1  UNL1        0.0192
      7 C          64.8211   84.8670   16.3321 C.ar    1  UNL1        0.0038
      8 C          64.6286   83.5338   15.6722 C.ar    1  UNL1        0.0297
      9 C          64.0545   83.4577   14.2886 C.ar    1  UNL1        0.1417
     10 F          63.8620   82.1245   13.6287 F       1  UNL1       -0.2041
     11 C          63.6729   84.7149   13.5648 C.ar    1  UNL1        0.0495
     12 C          62.1431   85.8200   10.0735 C.ar    1  UNL1        0.0826
     13 C          60.7285   86.2518    9.8237 C.ar    1  UNL1        0.0192
     14 C          60.1544   86.1758    8.4400 C.ar    1  UNL1        0.0031
     15 C          60.9949   85.6680    7.3062 C.ar    1  UNL1        0.0207
     16 C          62.4095   85.2362    7.5560 C.ar    1  UNL1        0.0988
     17 N          62.9836   85.3122    8.9396 N.ar    1  UNL1       -0.2438
     18 C          63.7303   81.4671    9.8808 C.3     1  UNL1        0.1109
     19 N          63.9229   82.8003   10.5407 N.am    1  UNL1       -0.2992
     20 C          62.9063   83.3056   11.5211 C.2     1  UNL1        0.2461
     21 O          61.6972   82.4778   11.8417 O.2     1  UNL1       -0.2701
     22 H          64.7164   83.3437   10.3303 H       1  UNL1        0.1498
     23 C          62.5282   88.4864   11.3932 C.3     1  UNL1        0.1110
     24 C          62.6183   88.5472    9.8971 C.3     1  UNL1        0.0278
     25 N          62.0566   89.6828   12.1654 N.pl3   1  UNL1       -0.3141
     26 H          61.1965   90.1059   11.9409 H       1  UNL1        0.1485
     27 C          62.8956   90.2346   13.2797 C.ar    1  UNL1        0.1429
     28 N          62.6266   89.8214   14.6964 N.ar    1  UNL1       -0.2084
     29 C          63.4656   90.3732   15.8107 C.ar    1  UNL1        0.2012
     30 N          64.5735   91.3381   15.5084 N.ar    1  UNL1       -0.2087
     31 C          64.8425   91.7512   14.0917 C.ar    1  UNL1        0.1396
     32 N          65.9504   92.7162   13.7894 N.pl3   1  UNL1       -0.3420
     33 C          64.0035   91.1995   12.9773 C.ar    1  UNL1        0.1308
     34 H          66.5010   93.0783   14.5208 H       1  UNL1        0.1437
     35 H          66.1269   92.9873   12.8596 H       1  UNL1        0.1437
     36 C          64.2725   91.6126   11.5607 C.1     1  UNL1        0.1061
     37 N          64.5415   92.0258   10.1441 N.1     1  UNL1       -0.1906
@<TRIPOS>BOND
     1    18    19    1
     2    19    20   am
     3    20    21    2
     4    20     1    1
     5     1     2   ar
     6     2    12    1
     7    12    13   ar
     8    13    14   ar
     9    14    15   ar
    10    15    16   ar
    11    16    17   ar
    12     2     3   ar
    13     3    23    1
    14    23    24    1
    15    23    25    1
    16    25    27    1
    17    27    28   ar
    18    28    29   ar
    19    29    30   ar
    20    30    31   ar
    21    31    32    1
    22    31    33   ar
    23    33    36    1
    24    36    37    3
    25     3     4   ar
    26     4     5   ar
    27     5     6   ar
    28     6     7   ar
    29     7     8   ar
    30     8     9   ar
    31     9    10    1
    32     9    11   ar
    33    11     1   ar
    34    17    12   ar
    35    33    27   ar
    36    11     5   ar
    37    19    22    1
    38    25    26    1
    39    32    34    1
    40    32    35    1
