@<TRIPOS>MOLECULE
*****
 34 37 0 0 0
SMALL
GASTEIGER

@<TRIPOS>ATOM
      1 C          64.3212   89.8526   13.4567 C.2     1  UNL1        0.2459
      2 O          65.0942   89.5212   14.6987 O.2     1  UNL1       -0.2730
      3 N          63.6169   88.7662   12.6992 N.am    1  UNL1       -0.2781
      4 C          62.8439   89.0977   11.4572 C.3     1  UNL1        0.0935
      5 C          62.1396   88.0113   10.6999 C.3     1  UNL1        0.0219
      6 C          62.2083   86.5934   11.1846 C.3     1  UNL1        0.0078
      7 C          62.9812   86.2619   12.4266 C.3     1  UNL1        0.0419
      8 C          63.6855   87.3483   13.1839 C.3     1  UNL1        0.0953
      9 C          63.0499   84.8440   12.9112 C.ar    1  UNL1       -0.0209
     10 C          62.1129   84.3716   13.9830 C.ar    1  UNL1       -0.0042
     11 C          62.1815   82.9537   14.4677 C.ar    1  UNL1       -0.0003
     12 C          63.1872   82.0083   13.8806 C.ar    1  UNL1       -0.0000
     13 C          64.1242   82.4807   12.8088 C.ar    1  UNL1       -0.0003
     14 C          64.0555   83.8986   12.3241 C.ar    1  UNL1       -0.0042
     15 C          64.2526   91.2705   12.9720 C.3     1  UNL1        0.1773
     16 N          65.4156   92.1934   13.1859 N.pl3   1  UNL1       -0.2973
     17 C          66.0261   92.9132   12.0200 C.ar    1  UNL1        0.0492
     18 C          65.7515   94.3732   11.8127 C.ar    1  UNL1        0.0154
     19 C          66.3620   95.0930   10.6469 C.ar    1  UNL1        0.0135
     20 C          67.2472   94.3529    9.6885 C.ar    1  UNL1        0.0683
     21 CL         67.8578   95.0727    8.5227 Cl      1  UNL1       -0.0814
     22 C          67.5219   92.8929    9.8959 C.ar    1  UNL1        0.0694
     23 CL         68.4071   92.1527    8.9374 Cl      1  UNL1       -0.0813
     24 C          66.9113   92.1731   11.0616 C.ar    1  UNL1        0.0268
     25 C          65.9680   92.3965   14.5656 C.3     1  UNL1        0.1234
     26 C          67.3854   92.0112   14.8701 C.3     1  UNL1        0.1636
     27 C          68.9525   93.8440   15.8371 C.3     1  UNL1        0.1742
     28 O          68.4906   93.0076   14.6809 O.3     1  UNL1       -0.3493
     29 C          64.4585   87.0169   14.4260 C.3     1  UNL1        0.0924
     30 N          63.7606   86.9672   15.7528 N.3     1  UNL1       -0.2713
     31 C          63.4989   85.7341   16.5658 C.3     1  UNL1        0.0722
     32 C          62.7784   86.1467   17.8151 C.3     1  UNL1        0.0188
     33 C          62.5949   87.6349   17.7742 C.3     1  UNL1        0.0188
     34 C          63.2019   88.1420   16.4997 C.3     1  UNL1        0.0722
@<TRIPOS>BOND
     1    27    28    1
     2    28    26    1
     3    26    25    1
     4    25    16    1
     5    16    15    1
     6    15     1    1
     7     1     2    2
     8     1     3   am
     9     3     4    1
    10     4     5    1
    11     5     6    1
    12     6     7    1
    13     7     9    1
    14     9    10   ar
    15    10    11   ar
    16    11    12   ar
    17    12    13   ar
    18    13    14   ar
    19     7     8    1
    20     8    29    1
    21    29    30    1
    22    30    31    1
    23    31    32    1
    24    32    33    1
    25    33    34    1
    26    16    17    1
    27    17    18   ar
    28    18    19   ar
    29    19    20   ar
    30    20    21    1
    31    20    22   ar
    32    22    23    1
    33    22    24   ar
    34     8     3    1
    35    34    30    1
    36    24    17   ar
    37    14     9   ar
@<TRIPOS>MOLECULE
*****
 34 37 0 0 0
SMALL
GASTEIGER

@<TRIPOS>ATOM
      1 C          63.9894   89.7035   13.2424 C.2     1  UNL1        0.2459
      2 O          64.8216   89.4564   14.4656 O.2     1  UNL1       -0.2730
      3 N          63.3432   88.5526   12.5297 N.am    1  UNL1       -0.2781
      4 C          62.5110   88.7997   11.3065 C.3     1  UNL1        0.0935
      5 C          61.8649   87.6488   10.5939 C.3     1  UNL1        0.0219
      6 C          62.0510   86.2507   11.1045 C.3     1  UNL1        0.0078
      7 C          62.8832   86.0036   12.3277 C.3     1  UNL1        0.0419
      8 C          63.5293   87.1545   13.0403 C.3     1  UNL1        0.0953
      9 C          63.0693   84.6055   12.8383 C.ar    1  UNL1       -0.0209
     10 C          62.1771   84.0780   13.9225 C.ar    1  UNL1       -0.0042
     11 C          62.3632   82.6799   14.4331 C.ar    1  UNL1       -0.0003
     12 C          63.4416   81.8093   13.8594 C.ar    1  UNL1       -0.0000
     13 C          64.3338   82.3367   12.7752 C.ar    1  UNL1       -0.0003
     14 C          64.1477   83.7348   12.2646 C.ar    1  UNL1       -0.0042
     15 C          63.8033   91.1016   12.7318 C.3     1  UNL1        0.1773
     16 N          64.9990   91.9450   12.4019 N.pl3   1  UNL1       -0.2973
     17 C          66.0677   92.1663   13.4310 C.ar    1  UNL1        0.0492
     18 C          65.6988   92.6409   14.8053 C.ar    1  UNL1        0.0154
     19 C          66.7674   92.8622   15.8344 C.ar    1  UNL1        0.0135
     20 C          68.2049   92.6089   15.4892 C.ar    1  UNL1        0.0683
     21 CL         69.2736   92.8302   16.5183 Cl      1  UNL1       -0.0814
     22 C          68.5739   92.1343   14.1149 C.ar    1  UNL1        0.0694
     23 CL         70.0115   91.8810   13.7698 Cl      1  UNL1       -0.0813
     24 C          67.5053   91.9130   13.0859 C.ar    1  UNL1        0.0268
     25 C          65.1261   92.5671   11.0430 C.3     1  UNL1        0.1234
     26 C          65.6256   93.9749   10.9063 C.3     1  UNL1        0.1636
     27 C          67.6445   93.8155    9.2789 C.3     1  UNL1        0.1742
     28 O          67.0717   94.2314   10.6013 O.3     1  UNL1       -0.3493
     29 C          64.3616   86.9073   14.2636 C.3     1  UNL1        0.0924
     30 N          63.7162   86.8828   15.6174 N.3     1  UNL1       -0.2713
     31 C          63.4415   85.6598   16.4412 C.3     1  UNL1        0.0722
     32 C          62.7876   86.0981   17.7181 C.3     1  UNL1        0.0188
     33 C          62.6582   87.5921   17.6834 C.3     1  UNL1        0.0188
     34 C          63.2321   88.0771   16.3852 C.3     1  UNL1        0.0722
@<TRIPOS>BOND
     1    27    28    1
     2    28    26    1
     3    26    25    1
     4    25    16    1
     5    16    15    1
     6    15     1    1
     7     1     2    2
     8     1     3   am
     9     3     4    1
    10     4     5    1
    11     5     6    1
    12     6     7    1
    13     7     9    1
    14     9    10   ar
    15    10    11   ar
    16    11    12   ar
    17    12    13   ar
    18    13    14   ar
    19     7     8    1
    20     8    29    1
    21    29    30    1
    22    30    31    1
    23    31    32    1
    24    32    33    1
    25    33    34    1
    26    16    17    1
    27    17    18   ar
    28    18    19   ar
    29    19    20   ar
    30    20    21    1
    31    20    22   ar
    32    22    23    1
    33    22    24   ar
    34     8     3    1
    35    34    30    1
    36    24    17   ar
    37    14     9   ar
@<TRIPOS>MOLECULE
*****
 34 37 0 0 0
SMALL
GASTEIGER

@<TRIPOS>ATOM
      1 C          61.3640   90.0095   12.3027 C.2     1  UNL1        0.2459
      2 O          61.0915   89.5606   13.7077 O.2     1  UNL1       -0.2730
      3 N          62.6432   90.7226   11.9779 N.am    1  UNL1       -0.2781
      4 C          62.9157   91.1715   10.5728 C.3     1  UNL1        0.0935
      5 C          64.1948   91.8845   10.2481 C.3     1  UNL1        0.0219
      6 C          65.2013   92.1487   11.3284 C.3     1  UNL1        0.0078
      7 C          64.9288   91.6998   12.7334 C.3     1  UNL1        0.0419
      8 C          63.6498   90.9867   13.0582 C.3     1  UNL1        0.0953
      9 C          65.9354   91.9639   13.8137 C.ar    1  UNL1       -0.0209
     10 C          65.4761   92.3448   15.1899 C.ar    1  UNL1       -0.0042
     11 C          66.4827   92.6089   16.2702 C.ar    1  UNL1       -0.0003
     12 C          67.9485   92.4922   15.9743 C.ar    1  UNL1       -0.0000
     13 C          68.4078   92.1113   14.5982 C.ar    1  UNL1       -0.0003
     14 C          67.4012   91.8471   13.5179 C.ar    1  UNL1       -0.0042
     15 C          60.3575   89.7454   11.2224 C.3     1  UNL1        0.1773
     16 N          60.7427   88.9355   10.0200 N.pl3   1  UNL1       -0.2973
     17 C          61.3967   87.5970   10.1955 C.ar    1  UNL1        0.0492
     18 C          61.4749   86.9732   11.5574 C.ar    1  UNL1        0.0154
     19 C          62.1288   85.6347   11.7329 C.ar    1  UNL1        0.0135
     20 C          62.7046   84.9200   10.5465 C.ar    1  UNL1        0.0683
     21 CL         63.3585   83.5815   10.7219 Cl      1  UNL1       -0.0814
     22 C          62.6264   85.5438    9.1845 C.ar    1  UNL1        0.0694
     23 CL         63.2022   84.8290    7.9981 Cl      1  UNL1       -0.0813
     24 C          61.9725   86.8823    9.0091 C.ar    1  UNL1        0.0268
     25 C          60.4741   89.4641    8.6422 C.3     1  UNL1        0.1234
     26 C          59.4088   88.8367    7.7927 C.3     1  UNL1        0.1636
     27 C          58.8885   90.4306    5.8081 C.3     1  UNL1        0.1742
     28 O          59.3713   89.1049    6.3174 O.3     1  UNL1       -0.3493
     29 C          63.3772   90.5378   14.4633 C.3     1  UNL1        0.0924
     30 N          63.6419   89.1159   14.8610 N.3     1  UNL1       -0.2713
     31 C          64.2656   88.0602   13.9970 C.3     1  UNL1        0.0722
     32 C          64.3385   86.7919   14.7945 C.3     1  UNL1        0.0188
     33 C          63.7598   87.0637   16.1514 C.3     1  UNL1        0.0188
     34 C          63.3293   88.5000   16.1925 C.3     1  UNL1        0.0722
@<TRIPOS>BOND
     1    27    28    1
     2    28    26    1
     3    26    25    1
     4    25    16    1
     5    16    15    1
     6    15     1    1
     7     1     2    2
     8     1     3   am
     9     3     4    1
    10     4     5    1
    11     5     6    1
    12     6     7    1
    13     7     9    1
    14     9    10   ar
    15    10    11   ar
    16    11    12   ar
    17    12    13   ar
    18    13    14   ar
    19     7     8    1
    20     8    29    1
    21    29    30    1
    22    30    31    1
    23    31    32    1
    24    32    33    1
    25    33    34    1
    26    16    17    1
    27    17    18   ar
    28    18    19   ar
    29    19    20   ar
    30    20    21    1
    31    20    22   ar
    32    22    23    1
    33    22    24   ar
    34     8     3    1
    35    34    30    1
    36    24    17   ar
    37    14     9   ar
@<TRIPOS>MOLECULE
*****
 34 37 0 0 0
SMALL
GASTEIGER

@<TRIPOS>ATOM
      1 C          61.7484   87.2492   10.8116 C.2     1  UNL1        0.2459
      2 O          61.2147   87.3981   12.2055 O.2     1  UNL1       -0.2730
      3 N          62.3957   85.9635   10.3897 N.am    1  UNL1       -0.2781
      4 C          62.9294   85.8146    8.9958 C.3     1  UNL1        0.0935
      5 C          63.5767   84.5289    8.5739 C.3     1  UNL1        0.0219
      6 C          63.6903   83.3921    9.5460 C.3     1  UNL1        0.0078
      7 C          63.1566   83.5410   10.9399 C.3     1  UNL1        0.0419
      8 C          62.5093   84.8267   11.3617 C.3     1  UNL1        0.0953
      9 C          63.2702   82.4043   11.9119 C.ar    1  UNL1       -0.0209
     10 C          62.2394   81.3147   11.9155 C.ar    1  UNL1       -0.0042
     11 C          62.3530   80.1779   12.8875 C.ar    1  UNL1       -0.0003
     12 C          63.4975   80.1307   13.8559 C.ar    1  UNL1       -0.0000
     13 C          64.5283   81.2203   13.8524 C.ar    1  UNL1       -0.0003
     14 C          64.4147   82.3571   12.8803 C.ar    1  UNL1       -0.0042
     15 C          61.6348   88.3860    9.8396 C.3     1  UNL1        0.1773
     16 N          61.4534   89.7875   10.3424 N.pl3   1  UNL1       -0.2973
     17 C          62.6210   90.5363   10.9137 C.ar    1  UNL1        0.0492
     18 C          63.3865   91.4996   10.0558 C.ar    1  UNL1        0.0154
     19 C          64.5539   92.2484   10.6270 C.ar    1  UNL1        0.0135
     20 C          64.9558   92.0339   12.0561 C.ar    1  UNL1        0.0683
     21 CL         66.1234   92.7827   12.6274 Cl      1  UNL1       -0.0814
     22 C          64.1903   91.0706   12.9140 C.ar    1  UNL1        0.0694
     23 CL         64.5923   90.8561   14.3432 Cl      1  UNL1       -0.0813
     24 C          63.0228   90.3218   12.3428 C.ar    1  UNL1        0.0268
     25 C          60.1047   90.4402   10.2740 C.3     1  UNL1        0.1234
     26 C          59.3186   90.6711   11.5306 C.3     1  UNL1        0.1636
     27 C          58.2241   88.8509   13.0268 C.3     1  UNL1        0.1742
     28 O          59.4113   89.6926   12.6637 O.3     1  UNL1       -0.3493
     29 C          61.9756   84.9757   12.7557 C.3     1  UNL1        0.0924
     30 N          62.9124   85.2678   13.8902 N.3     1  UNL1       -0.2713
     31 C          64.0902   86.1955   13.8445 C.3     1  UNL1        0.0722
     32 C          64.7416   86.1847   15.1956 C.3     1  UNL1        0.0188
     33 C          63.9663   85.2503   16.0764 C.3     1  UNL1        0.0188
     34 C          62.8358   84.6836   15.2696 C.3     1  UNL1        0.0722
@<TRIPOS>BOND
     1    27    28    1
     2    28    26    1
     3    26    25    1
     4    25    16    1
     5    16    15    1
     6    15     1    1
     7     1     2    2
     8     1     3   am
     9     3     4    1
    10     4     5    1
    11     5     6    1
    12     6     7    1
    13     7     9    1
    14     9    10   ar
    15    10    11   ar
    16    11    12   ar
    17    12    13   ar
    18    13    14   ar
    19     7     8    1
    20     8    29    1
    21    29    30    1
    22    30    31    1
    23    31    32    1
    24    32    33    1
    25    33    34    1
    26    16    17    1
    27    17    18   ar
    28    18    19   ar
    29    19    20   ar
    30    20    21    1
    31    20    22   ar
    32    22    23    1
    33    22    24   ar
    34     8     3    1
    35    34    30    1
    36    24    17   ar
    37    14     9   ar
@<TRIPOS>MOLECULE
*****
 34 37 0 0 0
SMALL
GASTEIGER

@<TRIPOS>ATOM
      1 C          63.1151   88.1879   12.7343 C.2     1  UNL1        0.2459
      2 O          61.9605   88.0328   11.7895 O.2     1  UNL1       -0.2730
      3 N          63.7048   86.9812   13.4025 N.am    1  UNL1       -0.2781
      4 C          64.8594   87.1363   14.3473 C.3     1  UNL1        0.0935
      5 C          65.4491   85.9298   15.0154 C.3     1  UNL1        0.0219
      6 C          64.8841   84.5681   14.7387 C.3     1  UNL1        0.0078
      7 C          63.7295   84.4130   13.7938 C.3     1  UNL1        0.0419
      8 C          63.1398   85.6195   13.1257 C.3     1  UNL1        0.0953
      9 C          63.1645   83.0513   13.5171 C.ar    1  UNL1       -0.0209
     10 C          63.6669   82.2537   12.3503 C.ar    1  UNL1       -0.0042
     11 C          63.1020   80.8920   12.0736 C.ar    1  UNL1       -0.0003
     12 C          62.0345   80.3279   12.9636 C.ar    1  UNL1       -0.0000
     13 C          61.5321   81.1254   14.1304 C.ar    1  UNL1       -0.0003
     14 C          62.0971   82.4871   14.4072 C.ar    1  UNL1       -0.0042
     15 C          63.6801   89.5496   13.0110 C.3     1  UNL1        0.1773
     16 N          63.7491   90.0609   14.4195 N.pl3   1  UNL1       -0.2973
     17 C          64.8753   90.9596   14.8368 C.ar    1  UNL1        0.0492
     18 C          64.7372   91.8163   16.0603 C.ar    1  UNL1        0.0154
     19 C          65.8633   92.7151   16.4776 C.ar    1  UNL1        0.0135
     20 C          67.1275   92.7571   15.6714 C.ar    1  UNL1        0.0683
     21 CL         68.2537   93.6558   16.0887 Cl      1  UNL1       -0.0814
     22 C          67.2656   91.9003   14.4479 C.ar    1  UNL1        0.0694
     23 CL         68.5299   91.9424   13.6417 Cl      1  UNL1       -0.0813
     24 C          66.1395   91.0016   14.0306 C.ar    1  UNL1        0.0268
     25 C          62.6921   89.6734   15.4107 C.3     1  UNL1        0.1234
     26 C          63.0461   88.8115   16.5863 C.3     1  UNL1        0.1636
     27 C          62.7321   86.6188   17.9440 C.3     1  UNL1        0.1742
     28 O          62.3662   87.4883   16.7778 O.3     1  UNL1       -0.3493
     29 C          61.9851   85.4645   12.1808 C.3     1  UNL1        0.0924
     30 N          62.2300   85.3935   10.7027 N.3     1  UNL1       -0.2713
     31 C          63.3483   84.6553   10.0287 C.3     1  UNL1        0.0722
     32 C          63.2090   84.8538    8.5484 C.3     1  UNL1        0.0188
     33 C          62.0046   85.7147    8.3075 C.3     1  UNL1        0.0188
     34 C          61.3995   86.0483    9.6389 C.3     1  UNL1        0.0722
@<TRIPOS>BOND
     1    27    28    1
     2    28    26    1
     3    26    25    1
     4    25    16    1
     5    16    15    1
     6    15     1    1
     7     1     2    2
     8     1     3   am
     9     3     4    1
    10     4     5    1
    11     5     6    1
    12     6     7    1
    13     7     9    1
    14     9    10   ar
    15    10    11   ar
    16    11    12   ar
    17    12    13   ar
    18    13    14   ar
    19     7     8    1
    20     8    29    1
    21    29    30    1
    22    30    31    1
    23    31    32    1
    24    32    33    1
    25    33    34    1
    26    16    17    1
    27    17    18   ar
    28    18    19   ar
    29    19    20   ar
    30    20    21    1
    31    20    22   ar
    32    22    23    1
    33    22    24   ar
    34     8     3    1
    35    34    30    1
    36    24    17   ar
    37    14     9   ar
@<TRIPOS>MOLECULE
*****
 34 37 0 0 0
SMALL
GASTEIGER

@<TRIPOS>ATOM
      1 C          63.1877   87.7832   12.7542 C.2     1  UNL1        0.2459
      2 O          62.1399   87.6333   11.6914 O.2     1  UNL1       -0.2730
      3 N          63.6765   86.5775   13.5009 N.am    1  UNL1       -0.2781
      4 C          64.7244   86.7274   14.5636 C.3     1  UNL1        0.0935
      5 C          65.2131   85.5218   15.3103 C.3     1  UNL1        0.0219
      6 C          64.6540   84.1662   14.9941 C.3     1  UNL1        0.0078
      7 C          63.6062   84.0164   13.9314 C.3     1  UNL1        0.0419
      8 C          63.1174   85.2220   13.1847 C.3     1  UNL1        0.0953
      9 C          63.0471   82.6608   13.6152 C.ar    1  UNL1       -0.0209
     10 C          61.8887   82.1249   14.4032 C.ar    1  UNL1       -0.0042
     11 C          61.3296   80.7694   14.0870 C.ar    1  UNL1       -0.0003
     12 C          61.9289   79.9498   12.9830 C.ar    1  UNL1       -0.0000
     13 C          63.0873   80.4857   12.1950 C.ar    1  UNL1       -0.0003
     14 C          63.6464   81.8412   12.5111 C.ar    1  UNL1       -0.0042
     15 C          63.7468   89.1388   13.0703 C.3     1  UNL1        0.1773
     16 N          63.2321   90.3491   12.3493 N.pl3   1  UNL1       -0.2973
     17 C          64.1629   91.4786   12.0206 C.ar    1  UNL1        0.0492
     18 C          64.2771   91.9693   10.6077 C.ar    1  UNL1        0.0154
     19 C          65.2079   93.0987   10.2790 C.ar    1  UNL1        0.0135
     20 C          66.0243   93.7375   11.3631 C.ar    1  UNL1        0.0683
     21 CL         66.9551   94.8670   11.0344 Cl      1  UNL1       -0.0814
     22 C          65.9101   93.2468   12.7760 C.ar    1  UNL1        0.0694
     23 CL         66.7266   93.8856   13.8601 Cl      1  UNL1       -0.0813
     24 C          64.9793   92.1174   13.1047 C.ar    1  UNL1        0.0268
     25 C          61.7866   90.4301   11.9569 C.3     1  UNL1        0.1234
     26 C          61.4042   90.4715   10.5070 C.3     1  UNL1        0.1636
     27 C          60.1237   89.0509    8.7486 C.3     1  UNL1        0.1742
     28 O          60.1422   89.8053   10.0449 O.3     1  UNL1       -0.3493
     29 C          62.0695   85.0722   12.1219 C.3     1  UNL1        0.0924
     30 N          62.4697   85.0106   10.6776 N.3     1  UNL1       -0.2713
     31 C          63.5446   84.1404   10.0968 C.3     1  UNL1        0.0722
     32 C          63.6044   84.4004    8.6207 C.3     1  UNL1        0.0188
     33 C          62.5665   85.4313    8.2892 C.3     1  UNL1        0.0188
     34 C          61.8652   85.8084    9.5604 C.3     1  UNL1        0.0722
@<TRIPOS>BOND
     1    27    28    1
     2    28    26    1
     3    26    25    1
     4    25    16    1
     5    16    15    1
     6    15     1    1
     7     1     2    2
     8     1     3   am
     9     3     4    1
    10     4     5    1
    11     5     6    1
    12     6     7    1
    13     7     9    1
    14     9    10   ar
    15    10    11   ar
    16    11    12   ar
    17    12    13   ar
    18    13    14   ar
    19     7     8    1
    20     8    29    1
    21    29    30    1
    22    30    31    1
    23    31    32    1
    24    32    33    1
    25    33    34    1
    26    16    17    1
    27    17    18   ar
    28    18    19   ar
    29    19    20   ar
    30    20    21    1
    31    20    22   ar
    32    22    23    1
    33    22    24   ar
    34     8     3    1
    35    34    30    1
    36    24    17   ar
    37    14     9   ar
@<TRIPOS>MOLECULE
*****
 34 37 0 0 0
SMALL
GASTEIGER

@<TRIPOS>ATOM
      1 C          62.0635   87.0063   10.6756 C.2     1  UNL1        0.2459
      2 O          61.4521   87.2801   12.0177 O.2     1  UNL1       -0.2730
      3 N          62.6504   85.6579   10.3798 N.am    1  UNL1       -0.2781
      4 C          63.2618   85.3840    9.0378 C.3     1  UNL1        0.0935
      5 C          63.8486   84.0357    8.7421 C.3     1  UNL1        0.0219
      6 C          63.8240   82.9611    9.7884 C.3     1  UNL1        0.0078
      7 C          63.2126   83.2350   11.1304 C.3     1  UNL1        0.0419
      8 C          62.6258   84.5833   11.4262 C.3     1  UNL1        0.0953
      9 C          63.1880   82.1604   12.1767 C.ar    1  UNL1       -0.0209
     10 C          64.3381   82.0138   13.1284 C.ar    1  UNL1       -0.0042
     11 C          64.3135   80.9393   14.1747 C.ar    1  UNL1       -0.0003
     12 C          63.1388   80.0114   14.2694 C.ar    1  UNL1       -0.0000
     13 C          61.9887   80.1580   13.3177 C.ar    1  UNL1       -0.0003
     14 C          62.0133   81.2325   12.2714 C.ar    1  UNL1       -0.0042
     15 C          62.0881   88.0808    9.6293 C.3     1  UNL1        0.1773
     16 N          61.7729   89.4989   10.0030 N.pl3   1  UNL1       -0.2973
     17 C          62.7509   90.2957   10.8146 C.ar    1  UNL1        0.0492
     18 C          62.8557   90.0721   12.2941 C.ar    1  UNL1        0.0154
     19 C          63.8336   90.8689   13.1057 C.ar    1  UNL1        0.0135
     20 C          64.7068   91.8893   12.4377 C.ar    1  UNL1        0.0683
     21 CL         65.6849   92.6862   13.2493 Cl      1  UNL1       -0.0814
     22 C          64.6021   92.1129   10.9582 C.ar    1  UNL1        0.0694
     23 CL         65.4754   93.1334   10.2902 Cl      1  UNL1       -0.0813
     24 C          63.6242   91.3161   10.1466 C.ar    1  UNL1        0.0268
     25 C          60.4797   90.1202    9.5652 C.3     1  UNL1        0.1234
     26 C          59.6690   89.4778    8.4788 C.3     1  UNL1        0.1636
     27 C          59.1506   87.0743    7.6395 C.3     1  UNL1        0.1742
     28 O          59.0516   88.1290    8.7015 O.3     1  UNL1       -0.3493
     29 C          62.0143   84.8572   12.7683 C.3     1  UNL1        0.0924
     30 N          62.8933   85.1649   13.9442 N.3     1  UNL1       -0.2713
     31 C          62.7224   84.6322   15.3360 C.3     1  UNL1        0.0722
     32 C          63.8210   85.1974   16.1867 C.3     1  UNL1        0.0188
     33 C          64.6708   86.0794   15.3207 C.3     1  UNL1        0.0188
     34 C          64.0974   86.0593   13.9348 C.3     1  UNL1        0.0722
@<TRIPOS>BOND
     1    27    28    1
     2    28    26    1
     3    26    25    1
     4    25    16    1
     5    16    15    1
     6    15     1    1
     7     1     2    2
     8     1     3   am
     9     3     4    1
    10     4     5    1
    11     5     6    1
    12     6     7    1
    13     7     9    1
    14     9    10   ar
    15    10    11   ar
    16    11    12   ar
    17    12    13   ar
    18    13    14   ar
    19     7     8    1
    20     8    29    1
    21    29    30    1
    22    30    31    1
    23    31    32    1
    24    32    33    1
    25    33    34    1
    26    16    17    1
    27    17    18   ar
    28    18    19   ar
    29    19    20   ar
    30    20    21    1
    31    20    22   ar
    32    22    23    1
    33    22    24   ar
    34     8     3    1
    35    34    30    1
    36    24    17   ar
    37    14     9   ar
@<TRIPOS>MOLECULE
*****
 34 37 0 0 0
SMALL
GASTEIGER

@<TRIPOS>ATOM
      1 C          63.7394   90.2169   12.3482 C.2     1  UNL1        0.2459
      2 O          63.3574   90.0632   10.9059 O.2     1  UNL1       -0.2730
      3 N          63.7971   89.0130   13.2412 N.am    1  UNL1       -0.2781
      4 C          64.1792   89.1667   14.6836 C.3     1  UNL1        0.0935
      5 C          64.2369   87.9629   15.5765 C.3     1  UNL1        0.0219
      6 C          63.9126   86.6053   15.0271 C.3     1  UNL1        0.0078
      7 C          63.5305   86.4516   13.5848 C.3     1  UNL1        0.0419
      8 C          63.4728   87.6554   12.6918 C.3     1  UNL1        0.0953
      9 C          63.2062   85.0940   13.0354 C.ar    1  UNL1       -0.0209
     10 C          63.3799   84.8162   11.5716 C.ar    1  UNL1       -0.0042
     11 C          63.0555   83.4587   11.0222 C.ar    1  UNL1       -0.0003
     12 C          62.5575   82.3789   11.9365 C.ar    1  UNL1       -0.0000
     13 C          62.3838   82.6567   13.4003 C.ar    1  UNL1       -0.0003
     14 C          62.7082   84.0143   13.9497 C.ar    1  UNL1       -0.0042
     15 C          64.0638   91.5745   12.8976 C.3     1  UNL1        0.1773
     16 N          65.4891   92.0377   12.9592 N.pl3   1  UNL1       -0.2973
     17 C          66.0680   92.8353   11.8284 C.ar    1  UNL1        0.0492
     18 C          65.6882   94.2761   11.6554 C.ar    1  UNL1        0.0154
     19 C          66.2671   95.0737   10.5246 C.ar    1  UNL1        0.0135
     20 C          67.2258   94.4306    9.5669 C.ar    1  UNL1        0.0683
     21 CL         67.8047   95.2282    8.4361 Cl      1  UNL1       -0.0814
     22 C          67.6056   92.9898    9.7399 C.ar    1  UNL1        0.0694
     23 CL         68.5643   92.3467    8.7822 Cl      1  UNL1       -0.0813
     24 C          67.0267   92.1922   10.8707 C.ar    1  UNL1        0.0268
     25 C          66.3355   91.7034   14.1516 C.3     1  UNL1        0.1234
     26 C          66.0446   92.3377   15.4794 C.3     1  UNL1        0.1636
     27 C          68.5362   93.0396   15.7015 C.3     1  UNL1        0.1742
     28 O          67.1254   93.0785   16.2095 O.3     1  UNL1       -0.3493
     29 C          63.0907   87.5018   11.2494 C.3     1  UNL1        0.0924
     30 N          61.6734   87.7395   10.8196 N.3     1  UNL1       -0.2713
     31 C          61.0747   87.3489    9.5009 C.3     1  UNL1        0.0722
     32 C          59.6373   87.7775    9.4992 C.3     1  UNL1        0.0188
     33 C          59.3476   88.4330   10.8169 C.3     1  UNL1        0.0188
     34 C          60.6060   88.4095   11.6329 C.3     1  UNL1        0.0722
@<TRIPOS>BOND
     1    27    28    1
     2    28    26    1
     3    26    25    1
     4    25    16    1
     5    16    15    1
     6    15     1    1
     7     1     2    2
     8     1     3   am
     9     3     4    1
    10     4     5    1
    11     5     6    1
    12     6     7    1
    13     7     9    1
    14     9    10   ar
    15    10    11   ar
    16    11    12   ar
    17    12    13   ar
    18    13    14   ar
    19     7     8    1
    20     8    29    1
    21    29    30    1
    22    30    31    1
    23    31    32    1
    24    32    33    1
    25    33    34    1
    26    16    17    1
    27    17    18   ar
    28    18    19   ar
    29    19    20   ar
    30    20    21    1
    31    20    22   ar
    32    22    23    1
    33    22    24   ar
    34     8     3    1
    35    34    30    1
    36    24    17   ar
    37    14     9   ar
@<TRIPOS>MOLECULE
*****
 34 37 0 0 0
SMALL
GASTEIGER

@<TRIPOS>ATOM
      1 C          63.3924   89.9277   11.9439 C.2     1  UNL1        0.2459
      2 O          62.9772   89.7091   10.5193 O.2     1  UNL1       -0.2730
      3 N          63.5696   88.7547   12.8620 N.am    1  UNL1       -0.2781
      4 C          63.9849   88.9733   14.2866 C.3     1  UNL1        0.0935
      5 C          64.1620   87.8004   15.2046 C.3     1  UNL1        0.0219
      6 C          63.9238   86.4088   14.6979 C.3     1  UNL1        0.0078
      7 C          63.5085   86.1901   13.2733 C.3     1  UNL1        0.0419
      8 C          63.3314   87.3631   12.3553 C.3     1  UNL1        0.0953
      9 C          63.2704   84.7985   12.7666 C.ar    1  UNL1       -0.0209
     10 C          63.6481   84.4374   11.3606 C.ar    1  UNL1       -0.0042
     11 C          63.4099   83.0458   10.8540 C.ar    1  UNL1       -0.0003
     12 C          62.7940   82.0153   11.7533 C.ar    1  UNL1       -0.0000
     13 C          62.4163   82.3765   13.1593 C.ar    1  UNL1       -0.0003
     14 C          62.6545   83.7681   13.6659 C.ar    1  UNL1       -0.0042
     15 C          63.6306   91.3193   12.4506 C.3     1  UNL1        0.1773
     16 N          64.9455   91.9951   12.1969 N.pl3   1  UNL1       -0.2973
     17 C          65.9559   92.1080   13.2998 C.ar    1  UNL1        0.0492
     18 C          65.5035   92.3495   14.7095 C.ar    1  UNL1        0.0154
     19 C          66.5138   92.4625   15.8124 C.ar    1  UNL1        0.0135
     20 C          67.9764   92.3340   15.5057 C.ar    1  UNL1        0.0683
     21 CL         68.9868   92.4470   16.6087 Cl      1  UNL1       -0.0814
     22 C          68.4288   92.0925   14.0961 C.ar    1  UNL1        0.0694
     23 CL         69.8915   91.9640   13.7894 Cl      1  UNL1       -0.0813
     24 C          67.4185   91.9795   12.9931 C.ar    1  UNL1        0.0268
     25 C          65.2501   92.5579   10.8402 C.3     1  UNL1        0.1234
     26 C          65.6851   93.9867   10.7014 C.3     1  UNL1        0.1636
     27 C          67.6140   94.7284    9.1268 C.3     1  UNL1        0.1742
     28 O          67.1334   94.3121   10.4854 O.3     1  UNL1       -0.3493
     29 C          62.9161   87.1445   10.9306 C.3     1  UNL1        0.0924
     30 N          61.5021   87.4178   10.5112 N.3     1  UNL1       -0.2713
     31 C          60.4207   87.9919   11.3778 C.3     1  UNL1        0.0722
     32 C          59.1715   88.0940   10.5538 C.3     1  UNL1        0.0188
     33 C          59.4808   87.5829    9.1779 C.3     1  UNL1        0.0188
     34 C          60.9212   87.1651    9.1516 C.3     1  UNL1        0.0722
@<TRIPOS>BOND
     1    27    28    1
     2    28    26    1
     3    26    25    1
     4    25    16    1
     5    16    15    1
     6    15     1    1
     7     1     2    2
     8     1     3   am
     9     3     4    1
    10     4     5    1
    11     5     6    1
    12     6     7    1
    13     7     9    1
    14     9    10   ar
    15    10    11   ar
    16    11    12   ar
    17    12    13   ar
    18    13    14   ar
    19     7     8    1
    20     8    29    1
    21    29    30    1
    22    30    31    1
    23    31    32    1
    24    32    33    1
    25    33    34    1
    26    16    17    1
    27    17    18   ar
    28    18    19   ar
    29    19    20   ar
    30    20    21    1
    31    20    22   ar
    32    22    23    1
    33    22    24   ar
    34     8     3    1
    35    34    30    1
    36    24    17   ar
    37    14     9   ar
