@<TRIPOS>MOLECULE
*****
 29 32 0 0 0
SMALL
GASTEIGER

@<TRIPOS>ATOM
      1 C          62.4515   90.2870   11.3453 C.3     1  UNL1        0.1025
      2 C          62.8962   91.0068   10.1066 C.3     1  UNL1        0.0259
      3 C          64.0382   91.9770   10.1722 C.3     1  UNL1        0.0450
      4 C          64.7356   92.2275   11.4764 C.ar    1  UNL1        0.0335
      5 C          65.8831   93.1202   11.8459 C.ar    1  UNL1       -0.0035
      6 C          66.1475   92.9522   13.3128 C.ar    1  UNL1        0.0133
      7 C          67.1572   93.5778   14.2287 C.ar    1  UNL1        0.0012
      8 C          67.1829   93.2070   15.6819 C.ar    1  UNL1        0.0001
      9 C          66.1989   92.2104   16.2191 C.ar    1  UNL1        0.0015
     10 C          65.1892   91.5847   15.3032 C.ar    1  UNL1        0.0172
     11 C          65.1635   91.9556   13.8500 C.ar    1  UNL1        0.0594
     12 N          64.2909   91.5078   12.7151 N.ar    1  UNL1       -0.3295
     13 C          63.1489   90.5375   12.6495 C.3     1  UNL1        0.1233
     14 C          60.1788   89.4219   12.2599 C.3     1  UNL1        0.1149
     15 N          61.3094   89.3168   11.2797 N.3     1  UNL1       -0.1535
     16 S          61.2980   88.2414   10.2340 S.O2    1  UNL1        0.0633
     17 O          62.3954   87.5226   10.9611 O.2     1  UNL1       -0.1528
     18 O          60.2005   88.9603    9.5068 O.2     1  UNL1       -0.1528
     19 C          61.2866   87.1662    9.1882 C.ar    1  UNL1        0.1223
     20 C          60.0419   86.9077    8.3918 C.ar    1  UNL1        0.0222
     21 C          60.0305   85.8324    7.3460 C.ar    1  UNL1        0.0310
     22 C          61.2637   85.0157    7.0967 C.ar    1  UNL1        0.1402
     23 F          61.2523   83.9404    6.0509 F       1  UNL1       -0.2042
     24 C          62.5083   85.2742    7.8930 C.ar    1  UNL1        0.0310
     25 C          62.5197   86.3494    8.9387 C.ar    1  UNL1        0.0222
     26 C          66.6342   94.0225   10.9123 C.3     1  UNL1        0.0691
     27 C          67.6257   93.4445    9.9462 C.2     1  UNL1        0.0548
     28 O          67.7396   94.0086    8.5611 O.co2   1  UNL1       -0.5488
     29 O          68.5031   92.3024   10.3655 O.co2   1  UNL1       -0.5488
@<TRIPOS>UNITY_ATOM_ATTR
28 1
charge -1
@<TRIPOS>BOND
     1    14    15    1
     2     1    15    1
     3     1     2    1
     4     2     3    1
     5     3     4    1
     6     4     5   ar
     7     5    26    1
     8    26    27    1
     9    27    28   ar
    10    27    29   ar
    11     5     6   ar
    12     6     7   ar
    13     7     8   ar
    14     8     9   ar
    15     9    10   ar
    16    10    11   ar
    17    11    12   ar
    18    12    13    1
    19    15    16    1
    20    16    17    2
    21    16    18    2
    22    16    19    1
    23    19    20   ar
    24    20    21   ar
    25    21    22   ar
    26    22    23    1
    27    22    24   ar
    28    24    25   ar
    29    13     1    1
    30    25    19   ar
    31    12     4   ar
    32    11     6   ar
@<TRIPOS>MOLECULE
*****
 29 32 0 0 0
SMALL
GASTEIGER

@<TRIPOS>ATOM
      1 C          62.4459   89.5913   11.3256 C.3     1  UNL1        0.1025
      2 C          62.6297   90.3626   10.0524 C.3     1  UNL1        0.0259
      3 C          63.5861   91.5173   10.0064 C.3     1  UNL1        0.0450
      4 C          64.3586   91.9006   11.2337 C.ar    1  UNL1        0.0335
      5 C          65.3648   92.9834   11.4890 C.ar    1  UNL1       -0.0035
      6 C          65.8028   92.8813   12.9200 C.ar    1  UNL1        0.0133
      7 C          66.7763   93.6837   13.7313 C.ar    1  UNL1        0.0012
      8 C          67.0143   93.3402   15.1719 C.ar    1  UNL1        0.0001
      9 C          66.2788   92.1942   15.8011 C.ar    1  UNL1        0.0015
     10 C          65.3053   91.3918   14.9897 C.ar    1  UNL1        0.0172
     11 C          65.0673   91.7353   13.5492 C.ar    1  UNL1        0.0594
     12 N          64.1748   91.1292   12.5070 N.ar    1  UNL1       -0.3295
     13 C          63.2184   89.9746   12.5530 C.3     1  UNL1        0.1233
     14 C          60.0339   88.6786   11.6417 C.3     1  UNL1        0.1149
     15 N          61.4894   88.4366   11.3716 N.3     1  UNL1       -0.1535
     16 S          61.9887   87.0400   11.1476 S.O2    1  UNL1        0.0633
     17 O          62.9145   87.1829   12.3190 O.2     1  UNL1       -0.1528
     18 O          61.0628   86.8970    9.9761 O.2     1  UNL1       -0.1528
     19 C          62.4879   85.6433   10.9235 C.ar    1  UNL1        0.1223
     20 C          62.5035   84.6614   12.0575 C.ar    1  UNL1        0.0222
     21 C          63.0027   83.2648   11.8334 C.ar    1  UNL1        0.0310
     22 C          63.4862   82.8501   10.4753 C.ar    1  UNL1        0.1402
     23 F          63.9854   81.4535   10.2512 F       1  UNL1       -0.2042
     24 C          63.4706   83.8320    9.3414 C.ar    1  UNL1        0.0310
     25 C          62.9714   85.2285    9.5655 C.ar    1  UNL1        0.0222
     26 C          65.8481   93.9914   10.4888 C.3     1  UNL1        0.0691
     27 C          67.1408   93.7663    9.7618 C.2     1  UNL1        0.0548
     28 O          68.1673   92.8310   10.3290 O.co2   1  UNL1       -0.5488
     29 O          67.4069   94.4764    8.4676 O.co2   1  UNL1       -0.5488
@<TRIPOS>UNITY_ATOM_ATTR
28 1
charge -1
@<TRIPOS>BOND
     1    14    15    1
     2     1    15    1
     3     1     2    1
     4     2     3    1
     5     3     4    1
     6     4     5   ar
     7     5    26    1
     8    26    27    1
     9    27    28   ar
    10    27    29   ar
    11     5     6   ar
    12     6     7   ar
    13     7     8   ar
    14     8     9   ar
    15     9    10   ar
    16    10    11   ar
    17    11    12   ar
    18    12    13    1
    19    15    16    1
    20    16    17    2
    21    16    18    2
    22    16    19    1
    23    19    20   ar
    24    20    21   ar
    25    21    22   ar
    26    22    23    1
    27    22    24   ar
    28    24    25   ar
    29    13     1    1
    30    25    19   ar
    31    12     4   ar
    32    11     6   ar
@<TRIPOS>MOLECULE
*****
 29 32 0 0 0
SMALL
GASTEIGER

@<TRIPOS>ATOM
      1 C          62.1002   89.7120   12.2922 C.3     1  UNL1        0.1025
      2 C          62.6258   89.2896   13.6321 C.3     1  UNL1        0.0259
      3 C          63.8728   89.9176   14.1805 C.3     1  UNL1        0.0450
      4 C          64.5941   90.9679   13.3890 C.ar    1  UNL1        0.0335
      5 C          65.8373   91.7589   13.6695 C.ar    1  UNL1       -0.0035
      6 C          66.0801   92.6701   12.5030 C.ar    1  UNL1        0.0133
      7 C          67.1553   93.6779   12.2233 C.ar    1  UNL1        0.0012
      8 C          67.1374   94.4578   10.9422 C.ar    1  UNL1        0.0001
      9 C          66.0442   94.2299    9.9407 C.ar    1  UNL1        0.0015
     10 C          64.9689   93.2222   10.2203 C.ar    1  UNL1        0.0172
     11 C          64.9869   92.4423   11.5015 C.ar    1  UNL1        0.0594
     12 N          64.0685   91.3902   12.0491 N.ar    1  UNL1       -0.3295
     13 C          62.8216   90.7623   11.5007 C.3     1  UNL1        0.1233
     14 C          59.5179   89.4283   12.3342 C.3     1  UNL1        0.1149
     15 N          60.8532   89.0840   11.7438 N.3     1  UNL1       -0.1535
     16 S          60.9416   88.1118   10.6050 S.O2    1  UNL1        0.0633
     17 O          60.5156   89.1890    9.6521 O.2     1  UNL1       -0.1528
     18 O          61.3676   87.0345   11.5578 O.2     1  UNL1       -0.1528
     19 C          61.0300   87.1395    9.4662 C.ar    1  UNL1        0.1223
     20 C          62.3080   86.3964    9.2119 C.ar    1  UNL1        0.0222
     21 C          62.3964   85.4240    8.0732 C.ar    1  UNL1        0.0310
     22 C          61.2068   85.1949    7.1887 C.ar    1  UNL1        0.1402
     23 F          61.2952   84.2226    6.0499 F       1  UNL1       -0.2042
     24 C          59.9289   85.9380    7.4429 C.ar    1  UNL1        0.0310
     25 C          59.8405   86.9102    8.5816 C.ar    1  UNL1        0.0222
     26 C          66.6884   91.6567   14.9004 C.3     1  UNL1        0.0691
     27 C          66.5850   92.7007   15.9726 C.2     1  UNL1        0.0548
     28 O          67.6515   93.7469   16.1061 O.co2   1  UNL1       -0.5488
     29 O          65.4150   92.6983   16.9113 O.co2   1  UNL1       -0.5488
@<TRIPOS>UNITY_ATOM_ATTR
28 1
charge -1
@<TRIPOS>BOND
     1    14    15    1
     2     1    15    1
     3     1     2    1
     4     2     3    1
     5     3     4    1
     6     4     5   ar
     7     5    26    1
     8    26    27    1
     9    27    28   ar
    10    27    29   ar
    11     5     6   ar
    12     6     7   ar
    13     7     8   ar
    14     8     9   ar
    15     9    10   ar
    16    10    11   ar
    17    11    12   ar
    18    12    13    1
    19    15    16    1
    20    16    17    2
    21    16    18    2
    22    16    19    1
    23    19    20   ar
    24    20    21   ar
    25    21    22   ar
    26    22    23    1
    27    22    24   ar
    28    24    25   ar
    29    13     1    1
    30    25    19   ar
    31    12     4   ar
    32    11     6   ar
@<TRIPOS>MOLECULE
*****
 29 32 0 0 0
SMALL
GASTEIGER

@<TRIPOS>ATOM
      1 C          64.4474   89.7361   13.8593 C.3     1  UNL1        0.1025
      2 C          64.7915   88.5764   14.7462 C.3     1  UNL1        0.0259
      3 C          64.3223   87.1964   14.3922 C.3     1  UNL1        0.0450
      4 C          63.5091   86.9760   13.1511 C.ar    1  UNL1        0.0335
      5 C          62.9112   85.7390   12.5493 C.ar    1  UNL1       -0.0035
      6 C          62.1977   86.1341   11.2904 C.ar    1  UNL1        0.0133
      7 C          61.4254   85.3364   10.2819 C.ar    1  UNL1        0.0012
      8 C          60.8100   86.0201    9.0971 C.ar    1  UNL1        0.0001
      9 C          60.9668   87.5014    8.9208 C.ar    1  UNL1        0.0015
     10 C          61.7391   88.2991    9.9294 C.ar    1  UNL1        0.0172
     11 C          62.3545   87.6154   11.1142 C.ar    1  UNL1        0.0594
     12 N          63.1650   88.1358   12.2642 N.ar    1  UNL1       -0.3295
     13 C          63.6342   89.5158   12.6183 C.3     1  UNL1        0.1233
     14 C          64.7879   91.6136   15.6226 C.3     1  UNL1        0.1149
     15 N          64.9166   91.1162   14.2134 N.3     1  UNL1       -0.1535
     16 S          65.5144   91.9988   13.1581 S.O2    1  UNL1        0.0633
     17 O          64.1413   92.3120   12.6421 O.2     1  UNL1       -0.1528
     18 O          66.8876   91.6855   13.6741 O.2     1  UNL1       -0.1528
     19 C          66.1123   92.8813   12.1028 C.ar    1  UNL1        0.1223
     20 C          66.8442   92.2735   10.9430 C.ar    1  UNL1        0.0222
     21 C          67.4421   93.1561    9.8877 C.ar    1  UNL1        0.0310
     22 C          67.3081   94.6464    9.9923 C.ar    1  UNL1        0.1402
     23 F          67.9060   95.5290    8.9370 F       1  UNL1       -0.2042
     24 C          66.5762   95.2542   11.1520 C.ar    1  UNL1        0.0310
     25 C          65.9784   94.3717   12.2072 C.ar    1  UNL1        0.0222
     26 C          63.0096   84.3505   13.1082 C.3     1  UNL1        0.0691
     27 C          62.7210   84.1039   14.5595 C.2     1  UNL1        0.0548
     28 O          61.6649   84.9057   15.2609 O.co2   1  UNL1       -0.5488
     29 O          63.4884   83.0556   15.3092 O.co2   1  UNL1       -0.5488
@<TRIPOS>UNITY_ATOM_ATTR
28 1
charge -1
@<TRIPOS>BOND
     1    14    15    1
     2     1    15    1
     3     1     2    1
     4     2     3    1
     5     3     4    1
     6     4     5   ar
     7     5    26    1
     8    26    27    1
     9    27    28   ar
    10    27    29   ar
    11     5     6   ar
    12     6     7   ar
    13     7     8   ar
    14     8     9   ar
    15     9    10   ar
    16    10    11   ar
    17    11    12   ar
    18    12    13    1
    19    15    16    1
    20    16    17    2
    21    16    18    2
    22    16    19    1
    23    19    20   ar
    24    20    21   ar
    25    21    22   ar
    26    22    23    1
    27    22    24   ar
    28    24    25   ar
    29    13     1    1
    30    25    19   ar
    31    12     4   ar
    32    11     6   ar
@<TRIPOS>MOLECULE
*****
 29 32 0 0 0
SMALL
GASTEIGER

@<TRIPOS>ATOM
      1 C          64.0085   89.7763   13.0738 C.3     1  UNL1        0.1025
      2 C          63.1751   89.8272   11.8277 C.3     1  UNL1        0.0259
      3 C          62.5746   88.5687   11.2752 C.3     1  UNL1        0.0450
      4 C          62.8074   87.2592   11.9689 C.ar    1  UNL1        0.0335
      5 C          62.3479   85.8648   11.6614 C.ar    1  UNL1       -0.0035
      6 C          62.8973   84.9522   12.7174 C.ar    1  UNL1        0.0133
      7 C          62.7732   83.4723   12.9287 C.ar    1  UNL1        0.0012
      8 C          63.4482   82.8229   14.1003 C.ar    1  UNL1        0.0001
      9 C          64.2473   83.6532   15.0605 C.ar    1  UNL1        0.0015
     10 C          64.3713   85.1330   14.8492 C.ar    1  UNL1        0.0172
     11 C          63.6964   85.7825   13.6777 C.ar    1  UNL1        0.0594
     12 N          63.6408   87.2083   13.2150 N.ar    1  UNL1       -0.3295
     13 C          64.2413   88.4669   13.7675 C.3     1  UNL1        0.1233
     14 C          64.5423   91.3145   15.0986 C.3     1  UNL1        0.1149
     15 N          64.6092   91.0350   13.6264 N.3     1  UNL1       -0.1535
     16 S          65.2766   92.0140   12.7066 S.O2    1  UNL1        0.0633
     17 O          66.6143   91.6233   13.2612 O.2     1  UNL1       -0.1528
     18 O          63.9388   92.4047   12.1518 O.2     1  UNL1       -0.1528
     19 C          65.9440   92.9930   11.7867 C.ar    1  UNL1        0.1223
     20 C          65.9127   94.4594   12.1016 C.ar    1  UNL1        0.0222
     21 C          66.5801   95.4384   11.1818 C.ar    1  UNL1        0.0310
     22 C          67.2787   94.9511    9.9470 C.ar    1  UNL1        0.1402
     23 F          67.9460   95.9301    9.0272 F       1  UNL1       -0.2042
     24 C          67.3099   93.4849    9.6322 C.ar    1  UNL1        0.0310
     25 C          66.6426   92.5059   10.5520 C.ar    1  UNL1        0.0222
     26 C          61.4897   85.4550   10.5014 C.3     1  UNL1        0.0691
     27 C          61.8015   85.9580    9.1230 C.2     1  UNL1        0.0548
     28 O          60.8461   86.8820    8.4278 O.co2   1  UNL1       -0.5488
     29 O          63.0689   85.5369    8.4400 O.co2   1  UNL1       -0.5488
@<TRIPOS>UNITY_ATOM_ATTR
28 1
charge -1
@<TRIPOS>BOND
     1    14    15    1
     2     1    15    1
     3     1     2    1
     4     2     3    1
     5     3     4    1
     6     4     5   ar
     7     5    26    1
     8    26    27    1
     9    27    28   ar
    10    27    29   ar
    11     5     6   ar
    12     6     7   ar
    13     7     8   ar
    14     8     9   ar
    15     9    10   ar
    16    10    11   ar
    17    11    12   ar
    18    12    13    1
    19    15    16    1
    20    16    17    2
    21    16    18    2
    22    16    19    1
    23    19    20   ar
    24    20    21   ar
    25    21    22   ar
    26    22    23    1
    27    22    24   ar
    28    24    25   ar
    29    13     1    1
    30    25    19   ar
    31    12     4   ar
    32    11     6   ar
@<TRIPOS>MOLECULE
*****
 29 32 0 0 0
SMALL
GASTEIGER

@<TRIPOS>ATOM
      1 C          63.1952   85.5595   13.2087 C.3     1  UNL1        0.1025
      2 C          62.3522   85.6314   11.9700 C.3     1  UNL1        0.0259
      3 C          62.1735   86.9402   11.2594 C.3     1  UNL1        0.0450
      4 C          62.8377   88.1771   11.7875 C.ar    1  UNL1        0.0335
      5 C          62.8438   89.5972   11.3045 C.ar    1  UNL1       -0.0035
      6 C          63.6906   90.4030   12.2446 C.ar    1  UNL1        0.0133
      7 C          64.0574   91.8572   12.2692 C.ar    1  UNL1        0.0012
      8 C          64.9415   92.3893   13.3579 C.ar    1  UNL1        0.0001
      9 C          65.4587   91.4672   14.4219 C.ar    1  UNL1        0.0015
     10 C          65.0918   90.0130   14.3973 C.ar    1  UNL1        0.0172
     11 C          64.2078   89.4809   13.3086 C.ar    1  UNL1        0.0594
     12 N          63.6807   88.1053   13.0261 N.ar    1  UNL1       -0.3295
     13 C          63.8594   86.7964   13.7367 C.3     1  UNL1        0.1233
     14 C          63.7162   84.2307   15.3797 C.3     1  UNL1        0.1149
     15 N          63.3739   84.2506   13.9194 N.3     1  UNL1       -0.1535
     16 S          63.2104   82.9617   13.1696 S.O2    1  UNL1        0.0633
     17 O          64.4142   83.2925   12.3383 O.2     1  UNL1       -0.1528
     18 O          62.0064   82.6310   14.0010 O.2     1  UNL1       -0.1528
     19 C          63.0467   81.6729   12.4199 C.ar    1  UNL1        0.1223
     20 C          62.6565   80.4234   13.1525 C.ar    1  UNL1        0.0222
     21 C          62.4929   79.1345   12.4028 C.ar    1  UNL1        0.0310
     22 C          62.7195   79.0952   10.9205 C.ar    1  UNL1        0.1402
     23 F          62.5559   77.8063   10.1708 F       1  UNL1       -0.2042
     24 C          63.1097   80.3446   10.1880 C.ar    1  UNL1        0.0310
     25 C          63.2733   81.6334   10.9376 C.ar    1  UNL1        0.0222
     26 C          62.1288   90.1199   10.0939 C.3     1  UNL1        0.0691
     27 C          60.6445   89.9447    9.9656 C.2     1  UNL1        0.0548
     28 O          60.0883   88.9461    8.9943 O.co2   1  UNL1       -0.5488
     29 O          59.7165   90.7681   10.8087 O.co2   1  UNL1       -0.5488
@<TRIPOS>UNITY_ATOM_ATTR
28 1
charge -1
@<TRIPOS>BOND
     1    14    15    1
     2     1    15    1
     3     1     2    1
     4     2     3    1
     5     3     4    1
     6     4     5   ar
     7     5    26    1
     8    26    27    1
     9    27    28   ar
    10    27    29   ar
    11     5     6   ar
    12     6     7   ar
    13     7     8   ar
    14     8     9   ar
    15     9    10   ar
    16    10    11   ar
    17    11    12   ar
    18    12    13    1
    19    15    16    1
    20    16    17    2
    21    16    18    2
    22    16    19    1
    23    19    20   ar
    24    20    21   ar
    25    21    22   ar
    26    22    23    1
    27    22    24   ar
    28    24    25   ar
    29    13     1    1
    30    25    19   ar
    31    12     4   ar
    32    11     6   ar
@<TRIPOS>MOLECULE
*****
 29 32 0 0 0
SMALL
GASTEIGER

@<TRIPOS>ATOM
      1 C          63.1543   89.0053   12.4368 C.3     1  UNL1        0.1025
      2 C          63.6677   88.8079   13.8323 C.3     1  UNL1        0.0259
      3 C          64.5880   89.8226   14.4434 C.3     1  UNL1        0.0450
      4 C          64.9947   91.0348   13.6590 C.ar    1  UNL1        0.0335
      5 C          65.8821   92.1965   13.9951 C.ar    1  UNL1       -0.0035
      6 C          65.9170   93.1120   12.8073 C.ar    1  UNL1        0.0133
      7 C          66.6253   94.4112   12.5620 C.ar    1  UNL1        0.0012
      8 C          66.4678   95.1145   11.2465 C.ar    1  UNL1        0.0001
      9 C          65.6020   94.5185   10.1763 C.ar    1  UNL1        0.0015
     10 C          64.8937   93.2193   10.4217 C.ar    1  UNL1        0.0172
     11 C          65.0512   92.5160   11.7371 C.ar    1  UNL1        0.0594
     12 N          64.4813   91.2322   12.2635 N.ar    1  UNL1       -0.3295
     13 C          63.5610   90.2175   11.6524 C.3     1  UNL1        0.1233
     14 C          61.0504   88.4398   11.0211 C.3     1  UNL1        0.1149
     15 N          62.2339   87.9906   11.8256 N.3     1  UNL1       -0.1535
     16 S          62.4973   86.5266   12.0191 S.O2    1  UNL1        0.0633
     17 O          63.5452   86.8503   13.0424 O.2     1  UNL1       -0.1528
     18 O          61.4495   86.2029   10.9958 O.2     1  UNL1       -0.1528
     19 C          62.7607   85.0626   12.2126 C.ar    1  UNL1        0.1223
     20 C          62.7513   84.4748   13.5927 C.ar    1  UNL1        0.0222
     21 C          63.0147   83.0108   13.7861 C.ar    1  UNL1        0.0310
     22 C          63.2873   82.1347   12.5995 C.ar    1  UNL1        0.1402
     23 F          63.5507   80.6707   12.7929 F       1  UNL1       -0.2042
     24 C          63.2967   82.7225   11.2195 C.ar    1  UNL1        0.0310
     25 C          63.0334   84.1864   11.0261 C.ar    1  UNL1        0.0222
     26 C          66.6072   92.4061   15.2913 C.3     1  UNL1        0.0691
     27 C          67.9725   93.0276   15.2950 C.2     1  UNL1        0.0548
     28 O          68.2706   94.1775   16.2109 O.co2   1  UNL1       -0.5488
     29 O          69.0395   92.4992   14.3828 O.co2   1  UNL1       -0.5488
@<TRIPOS>UNITY_ATOM_ATTR
28 1
charge -1
@<TRIPOS>BOND
     1    14    15    1
     2     1    15    1
     3     1     2    1
     4     2     3    1
     5     3     4    1
     6     4     5   ar
     7     5    26    1
     8    26    27    1
     9    27    28   ar
    10    27    29   ar
    11     5     6   ar
    12     6     7   ar
    13     7     8   ar
    14     8     9   ar
    15     9    10   ar
    16    10    11   ar
    17    11    12   ar
    18    12    13    1
    19    15    16    1
    20    16    17    2
    21    16    18    2
    22    16    19    1
    23    19    20   ar
    24    20    21   ar
    25    21    22   ar
    26    22    23    1
    27    22    24   ar
    28    24    25   ar
    29    13     1    1
    30    25    19   ar
    31    12     4   ar
    32    11     6   ar
@<TRIPOS>MOLECULE
*****
 29 32 0 0 0
SMALL
GASTEIGER

@<TRIPOS>ATOM
      1 C          63.8687   87.6939   14.4135 C.3     1  UNL1        0.1025
      2 C          63.2847   87.9264   13.0516 C.3     1  UNL1        0.0259
      3 C          63.5656   89.2075   12.3238 C.3     1  UNL1        0.0450
      4 C          64.4306   90.2562   12.9579 C.ar    1  UNL1        0.0335
      5 C          64.8793   91.6073   12.4857 C.ar    1  UNL1       -0.0035
      6 C          65.7407   92.2099   13.5557 C.ar    1  UNL1        0.0133
      7 C          66.4597   93.5234   13.6443 C.ar    1  UNL1        0.0012
      8 C          67.2622   93.8581   14.8665 C.ar    1  UNL1        0.0001
      9 C          67.3458   92.8793   16.0001 C.ar    1  UNL1        0.0015
     10 C          66.6268   91.5659   15.9115 C.ar    1  UNL1        0.0172
     11 C          65.8243   91.2312   14.6893 C.ar    1  UNL1        0.0594
     12 N          65.0146   90.0238   14.3199 N.ar    1  UNL1       -0.3295
     13 C          64.7336   88.7426   15.0477 C.3     1  UNL1        0.1233
     14 C          63.4542   86.4126   16.6354 C.3     1  UNL1        0.1149
     15 N          63.5877   86.4127   15.1414 N.3     1  UNL1       -0.1535
     16 S          63.4402   85.1317   14.3750 S.O2    1  UNL1        0.0633
     17 O          64.8898   85.1923   13.9945 O.2     1  UNL1       -0.1528
     18 O          61.9905   85.0711   14.7555 O.2     1  UNL1       -0.1528
     19 C          63.2927   83.8507   13.6087 C.ar    1  UNL1        0.1223
     20 C          62.4931   82.7198   14.1850 C.ar    1  UNL1        0.0222
     21 C          62.3455   81.4388   13.4187 C.ar    1  UNL1        0.0310
     22 C          62.9975   81.2887   12.0761 C.ar    1  UNL1        0.1402
     23 F          62.8499   80.0077   11.3098 F       1  UNL1       -0.2042
     24 C          63.7970   82.4195   11.4999 C.ar    1  UNL1        0.0310
     25 C          63.9446   83.7004   12.2662 C.ar    1  UNL1        0.0222
     26 C          64.5284   92.2441   11.1737 C.3     1  UNL1        0.0691
     27 C          65.5046   93.1635   10.5013 C.2     1  UNL1        0.0548
     28 O          66.7712   92.6138    9.9153 O.co2   1  UNL1       -0.5488
     29 O          65.2140   94.6326   10.4149 O.co2   1  UNL1       -0.5488
@<TRIPOS>UNITY_ATOM_ATTR
28 1
charge -1
@<TRIPOS>BOND
     1    14    15    1
     2     1    15    1
     3     1     2    1
     4     2     3    1
     5     3     4    1
     6     4     5   ar
     7     5    26    1
     8    26    27    1
     9    27    28   ar
    10    27    29   ar
    11     5     6   ar
    12     6     7   ar
    13     7     8   ar
    14     8     9   ar
    15     9    10   ar
    16    10    11   ar
    17    11    12   ar
    18    12    13    1
    19    15    16    1
    20    16    17    2
    21    16    18    2
    22    16    19    1
    23    19    20   ar
    24    20    21   ar
    25    21    22   ar
    26    22    23    1
    27    22    24   ar
    28    24    25   ar
    29    13     1    1
    30    25    19   ar
    31    12     4   ar
    32    11     6   ar
@<TRIPOS>MOLECULE
*****
 29 32 0 0 0
SMALL
GASTEIGER

@<TRIPOS>ATOM
      1 C          63.5223   88.5916   12.7597 C.3     1  UNL1        0.1025
      2 C          64.0279   88.4812   14.1676 C.3     1  UNL1        0.0259
      3 C          64.8312   89.5978   14.7657 C.3     1  UNL1        0.0450
      4 C          65.1288   90.8249   13.9559 C.ar    1  UNL1        0.0335
      5 C          65.8895   92.0778   14.2748 C.ar    1  UNL1       -0.0035
      6 C          65.8540   92.9625   13.0640 C.ar    1  UNL1        0.0133
      7 C          66.4333   94.3198   12.7953 C.ar    1  UNL1        0.0012
      8 C          66.2298   94.9710   11.4595 C.ar    1  UNL1        0.0001
      9 C          65.4472   94.2649   10.3923 C.ar    1  UNL1        0.0015
     10 C          64.8679   92.9077   10.6610 C.ar    1  UNL1        0.0172
     11 C          65.0713   92.2564   11.9968 C.ar    1  UNL1        0.0594
     12 N          64.6231   90.9354   12.5481 N.ar    1  UNL1       -0.3295
     13 C          63.8199   89.8187   11.9499 C.3     1  UNL1        0.1233
     14 C          62.7907   86.0986   12.7537 C.3     1  UNL1        0.1149
     15 N          62.7190   87.4749   12.1615 N.3     1  UNL1       -0.1535
     16 S          61.8440   87.7346   10.9711 S.O2    1  UNL1        0.0633
     17 O          60.9521   88.5964   11.8146 O.2     1  UNL1       -0.1528
     18 O          62.7360   86.8727   10.1275 O.2     1  UNL1       -0.1528
     19 C          60.9691   87.9943    9.7806 C.ar    1  UNL1        0.1223
     20 C          60.7895   89.3944    9.2730 C.ar    1  UNL1        0.0222
     21 C          59.9146   89.6540    8.0826 C.ar    1  UNL1        0.0310
     22 C          59.2194   88.5136    7.3998 C.ar    1  UNL1        0.1402
     23 F          58.3445   88.7733    6.2094 F       1  UNL1       -0.2042
     24 C          59.3990   87.1136    7.9074 C.ar    1  UNL1        0.0310
     25 C          60.2739   86.8539    9.0978 C.ar    1  UNL1        0.0222
     26 C          66.5668   92.3910   15.5760 C.3     1  UNL1        0.0691
     27 C          68.0630   92.3427   15.6734 C.2     1  UNL1        0.0548
     28 O          68.7179   91.9291   16.9579 O.co2   1  UNL1       -0.5488
     29 O          68.9040   92.7081   14.4864 O.co2   1  UNL1       -0.5488
@<TRIPOS>UNITY_ATOM_ATTR
28 1
charge -1
@<TRIPOS>BOND
     1    14    15    1
     2     1    15    1
     3     1     2    1
     4     2     3    1
     5     3     4    1
     6     4     5   ar
     7     5    26    1
     8    26    27    1
     9    27    28   ar
    10    27    29   ar
    11     5     6   ar
    12     6     7   ar
    13     7     8   ar
    14     8     9   ar
    15     9    10   ar
    16    10    11   ar
    17    11    12   ar
    18    12    13    1
    19    15    16    1
    20    16    17    2
    21    16    18    2
    22    16    19    1
    23    19    20   ar
    24    20    21   ar
    25    21    22   ar
    26    22    23    1
    27    22    24   ar
    28    24    25   ar
    29    13     1    1
    30    25    19   ar
    31    12     4   ar
    32    11     6   ar
