@<TRIPOS>MOLECULE
*****
 54 60 0 0 0
SMALL
GASTEIGER

@<TRIPOS>ATOM
      1 N          63.0046   84.0717    9.5751 N.3     1  UNL1       -0.1862
      2 C          62.3895   84.1359    8.2085 C.3     1  UNL1        0.1775
      3 C          61.5655   85.3249    7.8121 C.2     1  UNL1        0.2452
      4 O          60.9504   85.3891    6.4455 O.2     1  UNL1       -0.2732
      5 N          61.3565   86.4497    8.7822 N.am    1  UNL1       -0.2541
      6 C          60.5325   87.6388    8.3858 C.3     1  UNL1        0.1577
      7 C          60.3236   88.7636    9.3559 C.2     1  UNL1        0.2445
      8 O          59.4995   89.9526    8.9594 O.2     1  UNL1       -0.2731
      9 N          60.9387   88.6994   10.7225 N.am    1  UNL1       -0.2705
     10 C          61.7627   87.5103   11.1189 C.3     1  UNL1        0.1359
     11 C          61.9716   86.3855   10.1487 C.3     1  UNL1        0.1908
     12 N          62.7956   85.1964   10.5452 N.am    1  UNL1       -0.1863
     13 C          63.4108   85.1322   11.9118 C.2     1  UNL1        0.3191
     14 O          63.2018   86.2570   12.8819 O.2     1  UNL1       -0.2512
     15 N          64.2348   83.9432   12.3083 N.am    1  UNL1       -0.2836
     16 H          64.3719   83.2050   11.6715 H       1  UNL1        0.1513
     17 C          63.8286   82.8826    9.9715 C.3     1  UNL1        0.1188
     18 C          62.7395   81.2567   11.6804 C.2     1  UNL1       -0.0034
     19 C          63.1602   81.5748   10.2761 C.2     1  UNL1       -0.0071
     20 C          59.9174   87.7030    7.0192 C.3     1  UNL1        0.0556
     21 C          59.6619   89.0326    6.3735 C.ar    1  UNL1       -0.0198
     22 C          58.2646   89.5722    6.2952 C.ar    1  UNL1       -0.0011
     23 C          58.0091   90.9017    5.6494 C.ar    1  UNL1        0.0363
     24 C          59.1510   91.6917    5.0820 C.ar    1  UNL1        0.1337
     25 O          58.8955   93.0213    4.4363 O.3     1  UNL1       -0.5055
     26 C          60.5484   91.1521    5.1603 C.ar    1  UNL1        0.0363
     27 C          60.8039   89.8226    5.8060 C.ar    1  UNL1       -0.0011
     28 H          58.0226   93.3583    4.3873 H       1  UNL1        0.2922
     29 C          60.7297   89.8241   11.6926 C.3     1  UNL1        0.1217
     30 C          61.6968   90.0312   12.8205 C.ar    1  UNL1        0.0135
     31 C          61.3806   89.4988   14.1867 C.ar    1  UNL1       -0.0012
     32 C          62.3476   89.7059   15.3146 C.ar    1  UNL1       -0.0002
     33 C          63.6307   90.4453   15.0762 C.ar    1  UNL1        0.0015
     34 C          63.9468   90.9777   13.7099 C.ar    1  UNL1        0.0170
     35 C          65.1237   91.7401   13.1774 C.ar    1  UNL1        0.0186
     36 C          64.8841   92.0042   11.7204 C.ar    1  UNL1        0.0759
     37 N          63.5592   91.4051   11.3525 N.ar    1  UNL1       -0.3242
     38 C          62.9249   91.4350    9.9936 C.3     1  UNL1        0.1305
     39 C          62.9799   90.7707   12.5821 C.ar    1  UNL1        0.0575
     40 C          66.3288   92.1639   13.9638 C.ar    1  UNL1        0.0015
     41 C          67.6986   92.0310   13.3671 C.ar    1  UNL1        0.0007
     42 C          68.9035   92.4548   14.1536 C.ar    1  UNL1        0.0103
     43 C          68.7386   93.0116   15.5366 C.ar    1  UNL1        0.0684
     44 C          67.3688   93.1445   16.1333 C.ar    1  UNL1        0.0103
     45 C          66.1640   92.7207   15.3469 C.ar    1  UNL1        0.0007
     46 C          69.9436   93.4354   16.3230 C.1     1  UNL1        0.1004
     47 N          71.1487   93.8593   17.1093 N.1     1  UNL1       -0.1908
     48 C          64.8499   83.8789   13.6748 C.3     1  UNL1        0.1177
     49 C          64.2162   84.6151   14.8179 C.ar    1  UNL1       -0.0025
     50 C          64.7545   85.9497   15.2410 C.ar    1  UNL1       -0.0026
     51 C          64.1208   86.6858   16.3840 C.ar    1  UNL1       -0.0003
     52 C          62.9489   86.0873   17.1040 C.ar    1  UNL1       -0.0000
     53 C          62.4106   84.7527   16.6809 C.ar    1  UNL1       -0.0003
     54 C          63.0442   84.0165   15.5378 C.ar    1  UNL1       -0.0026
@<TRIPOS>BOND
     1    18    19    2
     2    19    17    1
     3    17     1    1
     4     1     2    1
     5     2     3    1
     6     3     4    2
     7     3     5   am
     8     5     6    1
     9     6    20    1
    10    20    21    1
    11    21    22   ar
    12    22    23   ar
    13    23    24   ar
    14    24    25    1
    15    24    26   ar
    16    26    27   ar
    17     6     7    1
    18     7     8    2
    19     7     9   am
    20     9    29    1
    21    29    30    1
    22    30    31   ar
    23    31    32   ar
    24    32    33   ar
    25    33    34   ar
    26    34    35   ar
    27    35    40    1
    28    40    41   ar
    29    41    42   ar
    30    42    43   ar
    31    43    46    1
    32    46    47    3
    33    43    44   ar
    34    44    45   ar
    35    35    36   ar
    36    36    37   ar
    37    37    38    1
    38    37    39   ar
    39     9    10    1
    40    11    10    1
    41    11    12    1
    42    12    13   am
    43    13    14    2
    44    13    15   am
    45    15    48    1
    46    48    49    1
    47    49    50   ar
    48    50    51   ar
    49    51    52   ar
    50    52    53   ar
    51    53    54   ar
    52    12     1    1
    53    54    49   ar
    54    11     5    1
    55    27    21   ar
    56    39    30   ar
    57    39    34   ar
    58    45    40   ar
    59    25    28    1
    60    15    16    1
@<TRIPOS>MOLECULE
*****
 54 60 0 0 0
SMALL
GASTEIGER

@<TRIPOS>ATOM
      1 N          62.3737   84.1696    9.5721 N.3     1  UNL1       -0.1862
      2 C          61.6098   84.2043    8.2817 C.3     1  UNL1        0.1775
      3 C          60.9371   85.4709    7.8422 C.2     1  UNL1        0.2452
      4 O          60.1732   85.5055    6.5516 O.2     1  UNL1       -0.2732
      5 N          61.0282   86.7028    8.6931 N.am    1  UNL1       -0.2541
      6 C          60.3554   87.9694    8.2535 C.3     1  UNL1        0.1577
      7 C          60.4465   89.2012    9.1045 C.2     1  UNL1        0.2445
      8 O          59.7737   90.4678    8.6649 O.2     1  UNL1       -0.2731
      9 N          61.2104   89.1666   10.3950 N.am    1  UNL1       -0.2705
     10 C          61.8831   87.9000   10.8345 C.3     1  UNL1        0.1359
     11 C          61.7920   86.6681    9.9835 C.3     1  UNL1        0.1908
     12 N          62.4648   85.4015   10.4230 N.am    1  UNL1       -0.1863
     13 C          63.2286   85.3669   11.7136 C.2     1  UNL1        0.3191
     14 O          63.3197   86.5988   12.5645 O.2     1  UNL1       -0.2512
     15 N          63.9014   84.1003   12.1531 N.am    1  UNL1       -0.2836
     16 H          63.8416   83.2918   11.5946 H       1  UNL1        0.1513
     17 C          63.0464   82.9031   10.0116 C.3     1  UNL1        0.1188
     18 C          63.0589   80.7495   11.4649 C.2     1  UNL1       -0.0034
     19 C          62.3963   82.0266   11.0408 C.2     1  UNL1       -0.0071
     20 C          59.5916   88.0041    6.9631 C.3     1  UNL1        0.0556
     21 C          59.4960   89.2812    6.1822 C.ar    1  UNL1       -0.0198
     22 C          58.1682   89.9575    6.0102 C.ar    1  UNL1       -0.0011
     23 C          58.0727   91.2346    5.2293 C.ar    1  UNL1        0.0363
     24 C          59.3048   91.8355    4.6204 C.ar    1  UNL1        0.1337
     25 O          59.2092   93.1126    3.8396 O.3     1  UNL1       -0.5055
     26 C          60.6327   91.1592    4.7925 C.ar    1  UNL1        0.0363
     27 C          60.7282   89.8820    5.5734 C.ar    1  UNL1       -0.0011
     28 H          58.3798   93.5351    3.7321 H       1  UNL1        0.2922
     29 C          61.3015   90.3985   11.2459 C.3     1  UNL1        0.1217
     30 C          62.6126   91.1117   11.3951 C.ar    1  UNL1        0.0135
     31 C          63.1631   91.9156   10.2546 C.ar    1  UNL1       -0.0012
     32 C          64.4742   92.6289   10.4037 C.ar    1  UNL1       -0.0002
     33 C          65.2348   92.5382   11.6934 C.ar    1  UNL1        0.0015
     34 C          64.6843   91.7343   12.8339 C.ar    1  UNL1        0.0170
     35 C          65.2049   91.4635   14.2143 C.ar    1  UNL1        0.0186
     36 C          64.2155   90.5829   14.9183 C.ar    1  UNL1        0.0759
     37 N          63.0835   90.3095   13.9730 N.ar    1  UNL1       -0.3242
     38 C          61.8741   89.4716   14.2647 C.3     1  UNL1        0.1305
     39 C          63.3732   91.0211   12.6847 C.ar    1  UNL1        0.0575
     40 C          66.4894   91.9823   14.7897 C.ar    1  UNL1        0.0015
     41 C          66.4871   92.6893   16.1127 C.ar    1  UNL1        0.0007
     42 C          67.7715   93.2080   16.6880 C.ar    1  UNL1        0.0103
     43 C          69.0583   93.0197   15.9405 C.ar    1  UNL1        0.0684
     44 C          69.0606   92.3127   14.6176 C.ar    1  UNL1        0.0103
     45 C          67.7762   91.7940   14.0422 C.ar    1  UNL1        0.0007
     46 C          70.3427   93.5385   16.5159 C.1     1  UNL1        0.1004
     47 N          71.6272   94.0573   17.0915 N.1     1  UNL1       -0.1908
     48 C          64.6652   84.0656   13.4435 C.3     1  UNL1        0.1177
     49 C          64.0933   84.7105   14.6712 C.ar    1  UNL1       -0.0025
     50 C          62.9250   84.0837   15.3725 C.ar    1  UNL1       -0.0026
     51 C          62.3531   84.7285   16.6002 C.ar    1  UNL1       -0.0003
     52 C          62.9496   86.0002   17.1264 C.ar    1  UNL1       -0.0000
     53 C          64.1180   86.6271   16.4251 C.ar    1  UNL1       -0.0003
     54 C          64.6899   85.9822   15.1974 C.ar    1  UNL1       -0.0026
@<TRIPOS>BOND
     1    18    19    2
     2    19    17    1
     3    17     1    1
     4     1     2    1
     5     2     3    1
     6     3     4    2
     7     3     5   am
     8     5     6    1
     9     6    20    1
    10    20    21    1
    11    21    22   ar
    12    22    23   ar
    13    23    24   ar
    14    24    25    1
    15    24    26   ar
    16    26    27   ar
    17     6     7    1
    18     7     8    2
    19     7     9   am
    20     9    29    1
    21    29    30    1
    22    30    31   ar
    23    31    32   ar
    24    32    33   ar
    25    33    34   ar
    26    34    35   ar
    27    35    40    1
    28    40    41   ar
    29    41    42   ar
    30    42    43   ar
    31    43    46    1
    32    46    47    3
    33    43    44   ar
    34    44    45   ar
    35    35    36   ar
    36    36    37   ar
    37    37    38    1
    38    37    39   ar
    39     9    10    1
    40    11    10    1
    41    11    12    1
    42    12    13   am
    43    13    14    2
    44    13    15   am
    45    15    48    1
    46    48    49    1
    47    49    50   ar
    48    50    51   ar
    49    51    52   ar
    50    52    53   ar
    51    53    54   ar
    52    12     1    1
    53    54    49   ar
    54    11     5    1
    55    27    21   ar
    56    39    30   ar
    57    39    34   ar
    58    45    40   ar
    59    25    28    1
    60    15    16    1
