@<TRIPOS>MOLECULE
*****
 36 39 0 0 0
SMALL
GASTEIGER

@<TRIPOS>ATOM
      1 N          63.0339   90.9411   11.5589 N.am    1  UNL1       -0.2438
      2 C          63.5935   91.5768   10.3209 C.3     1  UNL1        0.1009
      3 C          64.7846   92.4834   10.4162 C.3     1  UNL1        0.0662
      4 C          65.4162   92.7545   11.7495 C.3     1  UNL1        0.1600
      5 O          64.8566   92.1188   12.9875 O.3     1  UNL1       -0.4374
      6 C          63.6654   91.2121   12.8923 C.2     1  UNL1        0.4051
      7 O          63.1058   90.5765   14.1303 O.2     1  UNL1       -0.2262
      8 C          66.3019   93.5844   10.8682 C.ar    1  UNL1        0.0138
      9 C          66.2368   95.0814   10.9359 C.ar    1  UNL1       -0.0010
     10 C          67.1226   95.9113   10.0545 C.ar    1  UNL1       -0.0002
     11 C          68.0735   95.2440    9.1055 C.ar    1  UNL1       -0.0000
     12 C          68.1386   93.7470    9.0378 C.ar    1  UNL1       -0.0002
     13 C          67.2529   92.9171    9.9191 C.ar    1  UNL1       -0.0010
     14 C          61.8427   90.0344   11.4636 C.3     1  UNL1        0.1011
     15 C          60.4840   90.6074   11.1887 C.3     1  UNL1        0.0265
     16 C          62.3454   85.5952   12.0025 C.ar    1  UNL1        0.0002
     17 C          61.2421   86.1252   11.1355 C.ar    1  UNL1       -0.0003
     18 C          61.0745   87.6050   10.9559 C.ar    1  UNL1       -0.0027
     19 C          62.0103   88.5547   11.6433 C.ar    1  UNL1       -0.0042
     20 C          63.1137   88.0246   12.5102 C.ar    1  UNL1       -0.0027
     21 C          63.2812   86.5448   12.6898 C.ar    1  UNL1       -0.0003
     22 C          63.3989   80.9116   10.0140 C.3     1  UNL1        0.0501
     23 C          63.0397   81.7736   11.1878 C.ar    1  UNL1        0.0403
     24 C          62.8722   83.2533   11.0083 C.ar    1  UNL1        0.0130
     25 C          62.5130   84.1153   12.1821 C.ar    1  UNL1        0.0058
     26 C          62.3214   83.4977   13.5355 C.ar    1  UNL1        0.0608
     27 C          62.4889   82.0179   13.7150 C.ar    1  UNL1        0.2608
     28 O          62.2973   81.4002   15.0685 O.2     1  UNL1       -0.2670
     29 N          62.8481   81.1559   12.5412 N.ar    1  UNL1       -0.2972
     30 C          63.0156   79.6761   12.7208 C.3     1  UNL1        0.1332
     31 C          66.3553   93.3137   12.7767 C.3     1  UNL1        0.0714
     32 C          66.9279   92.4188   13.8355 C.3     1  UNL1        0.0922
     33 C          66.1383   93.1498   14.8805 C.3     1  UNL1        0.0294
     34 C          67.7176   91.6877   12.7906 C.3     1  UNL1        0.0294
     35 O          67.5006   91.5238   14.8945 O.3     1  UNL1       -0.3866
     36 H          67.1426   91.7766   15.7598 H       1  UNL1        0.2102
@<TRIPOS>BOND
     1    22    23    1
     2    23    24   ar
     3    24    25   ar
     4    25    16    1
     5    16    17   ar
     6    17    18   ar
     7    18    19   ar
     8    19    14    1
     9    14    15    1
    10    14     1    1
    11     1     2    1
    12     2     3    1
    13     3     4    1
    14     4    31    1
    15    31    32    1
    16    32    33    1
    17    32    34    1
    18    32    35    1
    19     4     8    1
    20     8     9   ar
    21     9    10   ar
    22    10    11   ar
    23    11    12   ar
    24    12    13   ar
    25     4     5    1
    26     5     6    1
    27     6     7    2
    28    19    20   ar
    29    20    21   ar
    30    25    26   ar
    31    26    27   ar
    32    27    28    2
    33    27    29   ar
    34    29    30    1
    35    29    23   ar
    36    21    16   ar
    37     6     1   am
    38    13     8   ar
    39    35    36    1
@<TRIPOS>MOLECULE
*****
 36 39 0 0 0
SMALL
GASTEIGER

@<TRIPOS>ATOM
      1 N          63.5142   90.5635   11.9393 N.am    1  UNL1       -0.2438
      2 C          64.1788   90.3867   13.2724 C.3     1  UNL1        0.1009
      3 C          65.3676   91.2264   13.6350 C.3     1  UNL1        0.0662
      4 C          65.8919   92.2430   12.6646 C.3     1  UNL1        0.1600
      5 O          65.2274   92.4198   11.3316 O.3     1  UNL1       -0.4374
      6 C          64.0385   91.5801   10.9689 C.2     1  UNL1        0.4051
      7 O          63.3739   91.7570    9.6358 O.2     1  UNL1       -0.2262
      8 C          66.8547   92.4433   13.7973 C.ar    1  UNL1        0.0138
      9 C          66.3576   92.9258   15.1277 C.ar    1  UNL1       -0.0010
     10 C          67.3204   93.1262   16.2604 C.ar    1  UNL1       -0.0002
     11 C          68.7802   92.8440   16.0626 C.ar    1  UNL1       -0.0000
     12 C          69.2773   92.3615   14.7322 C.ar    1  UNL1       -0.0002
     13 C          68.3146   92.1612   13.5995 C.ar    1  UNL1       -0.0010
     14 C          62.3254   89.7238   11.5767 C.3     1  UNL1        0.1011
     15 C          61.0749   90.3754   11.0652 C.3     1  UNL1        0.0265
     16 C          62.5105   85.2499   12.0233 C.ar    1  UNL1        0.0002
     17 C          61.6310   85.8631   10.9743 C.ar    1  UNL1       -0.0003
     18 C          61.5693   87.3544   10.8254 C.ar    1  UNL1       -0.0027
     19 C          62.3871   88.2325   11.7256 C.ar    1  UNL1       -0.0042
     20 C          63.2666   87.6193   12.7746 C.ar    1  UNL1       -0.0027
     21 C          63.3283   86.1279   12.9234 C.ar    1  UNL1       -0.0003
     22 C          63.2506   80.5466    9.9419 C.3     1  UNL1        0.0501
     23 C          62.9423   81.4069   11.1314 C.ar    1  UNL1        0.0403
     24 C          62.8806   82.8982   10.9826 C.ar    1  UNL1        0.0130
     25 C          62.5722   83.7585   12.1721 C.ar    1  UNL1        0.0058
     26 C          62.3256   83.1275   13.5103 C.ar    1  UNL1        0.0608
     27 C          62.3873   81.6362   13.6591 C.ar    1  UNL1        0.2608
     28 O          62.1407   81.0051   14.9974 O.2     1  UNL1       -0.2670
     29 N          62.6956   80.7759   12.4697 N.ar    1  UNL1       -0.2972
     30 C          62.7573   79.2845   12.6185 C.3     1  UNL1        0.1332
     31 C          66.7505   93.3291   12.0876 C.3     1  UNL1        0.0714
     32 C          66.5820   93.7363   10.6538 C.3     1  UNL1        0.0922
     33 C          65.7756   94.9249   11.0860 C.3     1  UNL1        0.0294
     34 C          67.3885   92.5477   10.2214 C.3     1  UNL1        0.0294
     35 O          66.4136   94.1435    9.2199 O.3     1  UNL1       -0.3866
     36 H          65.8856   94.9559    9.1744 H       1  UNL1        0.2102
@<TRIPOS>BOND
     1    22    23    1
     2    23    24   ar
     3    24    25   ar
     4    25    16    1
     5    16    17   ar
     6    17    18   ar
     7    18    19   ar
     8    19    14    1
     9    14    15    1
    10    14     1    1
    11     1     2    1
    12     2     3    1
    13     3     4    1
    14     4    31    1
    15    31    32    1
    16    32    33    1
    17    32    34    1
    18    32    35    1
    19     4     8    1
    20     8     9   ar
    21     9    10   ar
    22    10    11   ar
    23    11    12   ar
    24    12    13   ar
    25     4     5    1
    26     5     6    1
    27     6     7    2
    28    19    20   ar
    29    20    21   ar
    30    25    26   ar
    31    26    27   ar
    32    27    28    2
    33    27    29   ar
    34    29    30    1
    35    29    23   ar
    36    21    16   ar
    37     6     1   am
    38    13     8   ar
    39    35    36    1
