@<TRIPOS>MOLECULE
*****
 21 23 0 0 0
SMALL
GASTEIGER

@<TRIPOS>ATOM
      1 C          63.5078   90.0967   12.3796 C.ar    1  UNL1        0.0266
      2 C          63.8309   89.3195   13.6212 C.ar    1  UNL1        0.0994
      3 N          64.8471   89.8446   14.5915 N.ar    1  UNL1       -0.2423
      4 C          65.5402   91.1469   14.3202 C.ar    1  UNL1        0.0985
      5 C          66.5787   91.9102   15.0879 C.ar    1  UNL1        0.0392
      6 C          66.8974   93.1591   14.3206 C.ar    1  UNL1        0.0779
      7 N          66.0559   93.1677   13.0789 N.ar    1  UNL1       -0.3165
      8 C          65.2171   91.9241   13.0787 C.ar    1  UNL1        0.0782
      9 C          64.2010   91.3990   12.1084 C.ar    1  UNL1        0.0208
     10 C          60.7568   86.8478    9.2558 C.3     1  UNL1        0.0316
     11 C          61.2271   88.0783    9.9734 C.ar    1  UNL1       -0.0149
     12 C          60.6285   89.4489    9.8586 C.ar    1  UNL1        0.0312
     13 S          61.4100   90.3718   10.7460 S.2     1  UNL1       -0.0867
     14 C          62.4916   89.5716   11.4092 C.ar    1  UNL1        0.0307
     15 C          62.3785   88.1541   10.9317 C.ar    1  UNL1        0.0028
     16 C          66.0536   94.2328   12.0228 C.3     1  UNL1        0.1920
     17 C          66.8013   94.0190   10.7402 C.2     1  UNL1        0.2488
     18 O          67.6757   92.8115   10.5742 O.2     1  UNL1       -0.2728
     19 N          66.6747   95.0125    9.6235 N.am    1  UNL1       -0.2744
     20 C          67.4225   94.7986    8.3409 C.3     1  UNL1        0.1150
     21 C          65.8004   96.2199    9.7894 C.3     1  UNL1        0.1150
@<TRIPOS>BOND
     1    10    11    1
     2    11    12   ar
     3    12    13   ar
     4    13    14   ar
     5    14     1    1
     6     1     2   ar
     7     2     3   ar
     8     3     4   ar
     9     4     5   ar
    10     5     6   ar
    11     6     7   ar
    12     7    16    1
    13    16    17    1
    14    17    18    2
    15    17    19   am
    16    19    20    1
    17    19    21    1
    18     7     8   ar
    19     8     9   ar
    20    14    15   ar
    21    15    11   ar
    22     9     1   ar
    23     8     4   ar
@<TRIPOS>MOLECULE
*****
 21 23 0 0 0
SMALL
GASTEIGER

@<TRIPOS>ATOM
      1 C          62.3356   86.6338   10.6268 C.ar    1  UNL1        0.0266
      2 C          62.4123   88.0878   10.9872 C.ar    1  UNL1        0.0994
      3 N          63.0291   88.5063   12.2888 N.ar    1  UNL1       -0.2423
      4 C          63.5693   87.4708   13.2301 C.ar    1  UNL1        0.0985
      5 C          64.2283   87.5815   14.5731 C.ar    1  UNL1        0.0392
      6 C          64.5589   86.1958   15.0427 C.ar    1  UNL1        0.0779
      7 N          64.1042   85.2288   13.9900 N.ar    1  UNL1       -0.3165
      8 C          63.4926   86.0168   12.8697 C.ar    1  UNL1        0.0782
      9 C          62.8757   85.5983   11.5681 C.ar    1  UNL1        0.0208
     10 C          61.6452   84.4497    5.8693 C.3     1  UNL1        0.0316
     11 C          61.4014   85.2112    7.1384 C.ar    1  UNL1       -0.0149
     12 C          60.1376   85.9308    7.5059 C.ar    1  UNL1        0.0312
     13 S          60.3337   86.5513    8.8574 S.2     1  UNL1       -0.0867
     14 C          61.7187   86.2152    9.3251 C.ar    1  UNL1        0.0307
     15 C          62.3786   85.3870    8.2627 C.ar    1  UNL1        0.0028
     16 C          64.2376   83.7358   14.0474 C.3     1  UNL1        0.1920
     17 C          63.0790   82.8960   14.4974 C.2     1  UNL1        0.2488
     18 O          62.5141   83.0741   15.8755 O.2     1  UNL1       -0.2728
     19 N          62.4854   81.8781   13.5692 N.am    1  UNL1       -0.2744
     20 C          61.3268   81.0383   14.0192 C.3     1  UNL1        0.1150
     21 C          63.0502   81.7000   12.1911 C.3     1  UNL1        0.1150
@<TRIPOS>BOND
     1    10    11    1
     2    11    12   ar
     3    12    13   ar
     4    13    14   ar
     5    14     1    1
     6     1     2   ar
     7     2     3   ar
     8     3     4   ar
     9     4     5   ar
    10     5     6   ar
    11     6     7   ar
    12     7    16    1
    13    16    17    1
    14    17    18    2
    15    17    19   am
    16    19    20    1
    17    19    21    1
    18     7     8   ar
    19     8     9   ar
    20    14    15   ar
    21    15    11   ar
    22     9     1   ar
    23     8     4   ar
@<TRIPOS>MOLECULE
*****
 21 23 0 0 0
SMALL
GASTEIGER

@<TRIPOS>ATOM
      1 C          61.8640   87.6184   10.8101 C.ar    1  UNL1        0.0266
      2 C          62.1424   86.3200   11.5077 C.ar    1  UNL1        0.0994
      3 N          62.9924   86.2998   12.7434 N.ar    1  UNL1       -0.2423
      4 C          63.5639   87.5780   13.2816 C.ar    1  UNL1        0.0985
      5 C          64.4305   87.8675   14.4713 C.ar    1  UNL1        0.0392
      6 C          64.6877   89.3448   14.5089 C.ar    1  UNL1        0.0779
      7 N          63.9800   89.9683   13.3425 N.ar    1  UNL1       -0.3165
      8 C          63.2855   88.8764   12.5840 C.ar    1  UNL1        0.0782
      9 C          62.4355   88.8966   11.3483 C.ar    1  UNL1        0.0208
     10 C          59.0670   89.3171    6.6661 C.3     1  UNL1        0.0316
     11 C          59.7284   88.4195    7.6695 C.ar    1  UNL1       -0.0149
     12 C          59.6836   86.9201    7.6757 C.ar    1  UNL1        0.0312
     13 S          60.4782   86.4376    8.8529 S.2     1  UNL1       -0.0867
     14 C          61.0140   87.6387    9.5743 C.ar    1  UNL1        0.0307
     15 C          60.5505   88.8635    8.8429 C.ar    1  UNL1        0.0028
     16 C          63.9688   91.4276   12.9955 C.3     1  UNL1        0.1920
     17 C          64.6750   91.9110   11.7636 C.2     1  UNL1        0.2488
     18 O          63.9691   91.8969   10.4402 O.2     1  UNL1       -0.2728
     19 N          66.0871   92.4085   11.8551 N.am    1  UNL1       -0.2744
     20 C          66.7933   92.8920   10.6232 C.3     1  UNL1        0.1150
     21 C          66.7931   92.4226   13.1785 C.3     1  UNL1        0.1150
@<TRIPOS>BOND
     1    10    11    1
     2    11    12   ar
     3    12    13   ar
     4    13    14   ar
     5    14     1    1
     6     1     2   ar
     7     2     3   ar
     8     3     4   ar
     9     4     5   ar
    10     5     6   ar
    11     6     7   ar
    12     7    16    1
    13    16    17    1
    14    17    18    2
    15    17    19   am
    16    19    20    1
    17    19    21    1
    18     7     8   ar
    19     8     9   ar
    20    14    15   ar
    21    15    11   ar
    22     9     1   ar
    23     8     4   ar
@<TRIPOS>MOLECULE
*****
 21 23 0 0 0
SMALL
GASTEIGER

@<TRIPOS>ATOM
      1 C          62.5729   89.8773   11.4541 C.ar    1  UNL1        0.0266
      2 C          61.4059   90.6682   10.9417 C.ar    1  UNL1        0.0994
      3 N          60.3975   90.0190   10.0408 N.ar    1  UNL1       -0.2423
      4 C          60.5561   88.5789    9.6523 C.ar    1  UNL1        0.0985
      5 C          59.7287   87.6761    8.7859 C.ar    1  UNL1        0.0392
      6 C          60.3844   86.3272    8.7629 C.ar    1  UNL1        0.0779
      7 N          61.6170   86.3963    9.6150 N.ar    1  UNL1       -0.3165
      8 C          61.7230   87.7880   10.1647 C.ar    1  UNL1        0.0782
      9 C          62.7314   88.4371   11.0656 C.ar    1  UNL1        0.0208
     10 C          66.3422   93.0935   13.2786 C.3     1  UNL1        0.0316
     11 C          65.3139   92.0048   13.1936 C.ar    1  UNL1       -0.0149
     12 C          64.9525   91.0459   14.2891 C.ar    1  UNL1        0.0312
     13 S          63.8817   90.1323   13.7708 S.2     1  UNL1       -0.0867
     14 C          63.5814   90.5264   12.3550 C.ar    1  UNL1        0.0307
     15 C          64.4665   91.6837   11.9983 C.ar    1  UNL1        0.0028
     16 C          62.5752   85.2714    9.8723 C.3     1  UNL1        0.1920
     17 C          62.7099   84.7019   11.2535 C.2     1  UNL1        0.2488
     18 O          62.0204   85.3652   12.4087 O.2     1  UNL1       -0.2728
     19 N          63.5340   83.4691   11.4794 N.am    1  UNL1       -0.2744
     20 C          63.6687   82.8997   12.8605 C.3     1  UNL1        0.1150
     21 C          64.2235   82.8058   10.3242 C.3     1  UNL1        0.1150
@<TRIPOS>BOND
     1    10    11    1
     2    11    12   ar
     3    12    13   ar
     4    13    14   ar
     5    14     1    1
     6     1     2   ar
     7     2     3   ar
     8     3     4   ar
     9     4     5   ar
    10     5     6   ar
    11     6     7   ar
    12     7    16    1
    13    16    17    1
    14    17    18    2
    15    17    19   am
    16    19    20    1
    17    19    21    1
    18     7     8   ar
    19     8     9   ar
    20    14    15   ar
    21    15    11   ar
    22     9     1   ar
    23     8     4   ar
@<TRIPOS>MOLECULE
*****
 21 23 0 0 0
SMALL
GASTEIGER

@<TRIPOS>ATOM
      1 C          63.5611   90.1883   12.3293 C.ar    1  UNL1        0.0266
      2 C          62.5376   90.7122   11.3661 C.ar    1  UNL1        0.0994
      3 N          61.5938   89.7653   10.6861 N.ar    1  UNL1       -0.2423
      4 C          61.6735   88.2944   10.9693 C.ar    1  UNL1        0.0985
      5 C          60.8827   87.1287   10.4537 C.ar    1  UNL1        0.0392
      6 C          61.4176   85.8843   11.0982 C.ar    1  UNL1        0.0779
      7 N          62.5389   86.2810   12.0122 N.ar    1  UNL1       -0.3165
      8 C          62.6971   87.7705   11.9325 C.ar    1  UNL1        0.0782
      9 C          63.6409   88.7174   12.6125 C.ar    1  UNL1        0.0208
     10 C          66.5148   92.5551   16.0111 C.3     1  UNL1        0.0316
     11 C          65.8626   92.2231   14.7017 C.ar    1  UNL1       -0.0149
     12 C          66.0522   92.9618   13.4100 C.ar    1  UNL1        0.0312
     13 S          65.2132   92.2895   12.3641 S.2     1  UNL1       -0.0867
     14 C          64.5050   91.1353   13.0094 C.ar    1  UNL1        0.0307
     15 C          64.9064   91.0943   14.4541 C.ar    1  UNL1        0.0028
     16 C          63.3583   85.3514   12.8575 C.3     1  UNL1        0.1920
     17 C          62.6799   84.3497   13.7444 C.2     1  UNL1        0.2488
     18 O          62.1255   84.7767   15.0711 O.2     1  UNL1       -0.2728
     19 N          62.5559   82.9210   13.3045 N.am    1  UNL1       -0.2744
     20 C          61.8776   81.9194   14.1914 C.3     1  UNL1        0.1150
     21 C          63.1103   82.4939   11.9778 C.3     1  UNL1        0.1150
@<TRIPOS>BOND
     1    10    11    1
     2    11    12   ar
     3    12    13   ar
     4    13    14   ar
     5    14     1    1
     6     1     2   ar
     7     2     3   ar
     8     3     4   ar
     9     4     5   ar
    10     5     6   ar
    11     6     7   ar
    12     7    16    1
    13    16    17    1
    14    17    18    2
    15    17    19   am
    16    19    20    1
    17    19    21    1
    18     7     8   ar
    19     8     9   ar
    20    14    15   ar
    21    15    11   ar
    22     9     1   ar
    23     8     4   ar
@<TRIPOS>MOLECULE
*****
 21 23 0 0 0
SMALL
GASTEIGER

@<TRIPOS>ATOM
      1 C          62.1270   85.7736   10.5775 C.ar    1  UNL1        0.0266
      2 C          61.1283   85.8265    9.4596 C.ar    1  UNL1        0.0994
      3 N          60.4342   87.1159    9.1345 N.ar    1  UNL1       -0.2423
      4 C          60.7389   88.3523    9.9272 C.ar    1  UNL1        0.0985
      5 C          60.2164   89.7556    9.8384 C.ar    1  UNL1        0.0392
      6 C          60.8923   90.5699   10.9015 C.ar    1  UNL1        0.0779
      7 N          61.8324   89.6699   11.6472 N.ar    1  UNL1       -0.3165
      8 C          61.7376   88.2994   11.0451 C.ar    1  UNL1        0.0782
      9 C          62.4317   87.0100   11.3702 C.ar    1  UNL1        0.0208
     10 C          63.8111   81.4910   13.1668 C.3     1  UNL1        0.0316
     11 C          63.5952   82.5157   12.0928 C.ar    1  UNL1       -0.0149
     12 C          64.1833   82.4843   10.7132 C.ar    1  UNL1        0.0312
     13 S          63.7049   83.7009    9.9777 S.2     1  UNL1       -0.0867
     14 C          62.8211   84.4842   10.9027 C.ar    1  UNL1        0.0307
     15 C          62.7534   83.7516   12.2099 C.ar    1  UNL1        0.0028
     16 C          62.7128   90.0702   12.7938 C.3     1  UNL1        0.1920
     17 C          63.8776   90.9861   12.5609 C.2     1  UNL1        0.2488
     18 O          64.1727   91.4875   11.1783 O.2     1  UNL1       -0.2728
     19 N          64.7473   91.4008   13.7105 N.am    1  UNL1       -0.2744
     20 C          65.9121   92.3168   13.4776 C.3     1  UNL1        0.1150
     21 C          64.4523   90.8995   15.0931 C.3     1  UNL1        0.1150
@<TRIPOS>BOND
     1    10    11    1
     2    11    12   ar
     3    12    13   ar
     4    13    14   ar
     5    14     1    1
     6     1     2   ar
     7     2     3   ar
     8     3     4   ar
     9     4     5   ar
    10     5     6   ar
    11     6     7   ar
    12     7    16    1
    13    16    17    1
    14    17    18    2
    15    17    19   am
    16    19    20    1
    17    19    21    1
    18     7     8   ar
    19     8     9   ar
    20    14    15   ar
    21    15    11   ar
    22     9     1   ar
    23     8     4   ar
@<TRIPOS>MOLECULE
*****
 21 23 0 0 0
SMALL
GASTEIGER

@<TRIPOS>ATOM
      1 C          63.4067   85.3459   13.1238 C.ar    1  UNL1        0.0266
      2 C          63.9707   85.6938   14.4694 C.ar    1  UNL1        0.0994
      3 N          64.2008   87.1295   14.8378 N.ar    1  UNL1       -0.2423
      4 C          63.8669   88.2173   13.8605 C.ar    1  UNL1        0.0985
      5 C          63.9842   89.7106   13.9420 C.ar    1  UNL1        0.0392
      6 C          63.4926   90.2855   12.6467 C.ar    1  UNL1        0.0779
      7 N          63.0715   89.1476   11.7647 N.ar    1  UNL1       -0.3165
      8 C          63.3028   87.8694   12.5148 C.ar    1  UNL1        0.0782
      9 C          63.0728   86.4337   12.1465 C.ar    1  UNL1        0.0208
     10 C          62.1442   80.2270   13.4145 C.3     1  UNL1        0.0316
     11 C          62.5963   81.5572   12.8890 C.ar    1  UNL1       -0.0149
     12 C          63.0488   81.8442   11.4879 C.ar    1  UNL1        0.0312
     13 S          63.4074   83.2983   11.4054 S.2     1  UNL1       -0.0867
     14 C          63.1766   83.9101   12.7554 C.ar    1  UNL1        0.0307
     15 C          62.6753   82.8340   13.6723 C.ar    1  UNL1        0.0028
     16 C          62.5165   89.2669   10.3762 C.3     1  UNL1        0.1920
     17 C          61.1189   88.8067   10.0851 C.2     1  UNL1        0.2488
     18 O          59.9487   89.6238   10.5467 O.2     1  UNL1       -0.2728
     19 N          60.8914   87.5294    9.3322 N.am    1  UNL1       -0.2744
     20 C          59.4937   87.0692    9.0410 C.3     1  UNL1        0.1150
     21 C          62.0614   86.7123    8.8705 C.3     1  UNL1        0.1150
@<TRIPOS>BOND
     1    10    11    1
     2    11    12   ar
     3    12    13   ar
     4    13    14   ar
     5    14     1    1
     6     1     2   ar
     7     2     3   ar
     8     3     4   ar
     9     4     5   ar
    10     5     6   ar
    11     6     7   ar
    12     7    16    1
    13    16    17    1
    14    17    18    2
    15    17    19   am
    16    19    20    1
    17    19    21    1
    18     7     8   ar
    19     8     9   ar
    20    14    15   ar
    21    15    11   ar
    22     9     1   ar
    23     8     4   ar
@<TRIPOS>MOLECULE
*****
 21 23 0 0 0
SMALL
GASTEIGER

@<TRIPOS>ATOM
      1 C          62.9647   84.8089   13.0566 C.ar    1  UNL1        0.0266
      2 C          63.7813   85.5473   14.0753 C.ar    1  UNL1        0.0994
      3 N          63.9793   87.0286   13.9470 N.ar    1  UNL1       -0.2423
      4 C          63.3607   87.7715   12.8000 C.ar    1  UNL1        0.0985
      5 C          63.3821   89.2210   12.4146 C.ar    1  UNL1        0.0392
      6 C          62.5787   89.3783   11.1577 C.ar    1  UNL1        0.0779
      7 N          62.0608   88.0261   10.7663 N.ar    1  UNL1       -0.3165
      8 C          62.5441   87.0330   11.7813 C.ar    1  UNL1        0.0782
      9 C          62.3461   85.5517   11.9096 C.ar    1  UNL1        0.0208
     10 C          62.6635   79.6643   11.9058 C.3     1  UNL1        0.0316
     11 C          62.6282   80.9628   12.6559 C.ar    1  UNL1       -0.0149
     12 C          62.2956   81.1331   14.1086 C.ar    1  UNL1        0.0312
     13 S          62.3811   82.5945   14.4355 S.2     1  UNL1       -0.0867
     14 C          62.7666   83.3275   13.1848 C.ar    1  UNL1        0.0307
     15 C          62.9193   82.3190   12.0850 C.ar    1  UNL1        0.0028
     16 C          61.2091   87.7205    9.5700 C.3     1  UNL1        0.1920
     17 C          61.5970   86.6122    8.6365 C.2     1  UNL1        0.2488
     18 O          62.9992   86.0796    8.6464 O.2     1  UNL1       -0.2728
     19 N          60.5826   86.0365    7.6933 N.am    1  UNL1       -0.2744
     20 C          60.9705   84.9282    6.7599 C.3     1  UNL1        0.1150
     21 C          59.1804   86.5690    7.6835 C.3     1  UNL1        0.1150
@<TRIPOS>BOND
     1    10    11    1
     2    11    12   ar
     3    12    13   ar
     4    13    14   ar
     5    14     1    1
     6     1     2   ar
     7     2     3   ar
     8     3     4   ar
     9     4     5   ar
    10     5     6   ar
    11     6     7   ar
    12     7    16    1
    13    16    17    1
    14    17    18    2
    15    17    19   am
    16    19    20    1
    17    19    21    1
    18     7     8   ar
    19     8     9   ar
    20    14    15   ar
    21    15    11   ar
    22     9     1   ar
    23     8     4   ar
@<TRIPOS>MOLECULE
*****
 21 23 0 0 0
SMALL
GASTEIGER

@<TRIPOS>ATOM
      1 C          61.8475   87.4452   10.7881 C.ar    1  UNL1        0.0266
      2 C          62.4954   88.6670   11.3688 C.ar    1  UNL1        0.0994
      3 N          63.3646   88.5485   12.5855 N.ar    1  UNL1       -0.2423
      4 C          63.5860   87.2081   13.2214 C.ar    1  UNL1        0.0985
      5 C          64.3851   86.7846   14.4182 C.ar    1  UNL1        0.0392
      6 C          64.2311   85.3011   14.5770 C.ar    1  UNL1        0.0779
      7 N          63.3368   84.8076   13.4785 N.ar    1  UNL1       -0.3165
      8 C          62.9381   85.9862   12.6407 C.ar    1  UNL1        0.0782
      9 C          62.0689   86.1048   11.4240 C.ar    1  UNL1        0.0208
     10 C          59.0920   89.4654    6.7623 C.3     1  UNL1        0.0316
     11 C          59.7116   88.4922    7.7209 C.ar    1  UNL1       -0.0149
     12 C          59.5693   86.9996    7.6772 C.ar    1  UNL1        0.0312
     13 S          60.3521   86.4257    8.8209 S.2     1  UNL1       -0.0867
     14 C          60.9782   87.5636    9.5714 C.ar    1  UNL1        0.0307
     15 C          60.5823   88.8408    8.8916 C.ar    1  UNL1        0.0028
     16 C          62.9151   83.3853   13.2567 C.3     1  UNL1        0.1920
     17 C          63.2355   82.7015   11.9606 C.2     1  UNL1        0.2488
     18 O          63.8439   83.4802   10.8321 O.2     1  UNL1       -0.2728
     19 N          62.9475   81.2390   11.7930 N.am    1  UNL1       -0.2744
     20 C          63.2679   80.5552   10.4969 C.3     1  UNL1        0.1150
     21 C          62.3392   80.4602   12.9214 C.3     1  UNL1        0.1150
@<TRIPOS>BOND
     1    10    11    1
     2    11    12   ar
     3    12    13   ar
     4    13    14   ar
     5    14     1    1
     6     1     2   ar
     7     2     3   ar
     8     3     4   ar
     9     4     5   ar
    10     5     6   ar
    11     6     7   ar
    12     7    16    1
    13    16    17    1
    14    17    18    2
    15    17    19   am
    16    19    20    1
    17    19    21    1
    18     7     8   ar
    19     8     9   ar
    20    14    15   ar
    21    15    11   ar
    22     9     1   ar
    23     8     4   ar
