@<TRIPOS>MOLECULE
*****
 28 31 0 0 0
SMALL
GASTEIGER

@<TRIPOS>ATOM
      1 C          62.7131   89.8882   12.7252 C.3     1  UNL1        0.1318
      2 C          63.3049   85.1930   12.2353 C.3     1  UNL1        0.0222
      3 C          62.5102   86.1174   11.3613 C.3     1  UNL1        0.0842
      4 C          61.7339   85.7254   10.1391 C.3     1  UNL1        0.0483
      5 C          61.0961   86.9619    9.5786 C.ar    1  UNL1       -0.0006
      6 C          60.2168   87.1843    8.3839 C.ar    1  UNL1        0.0318
      7 BR         59.8348   86.0280    7.5081 Br      1  UNL1       -0.0493
      8 C          59.7196   88.5631    8.0650 C.ar    1  UNL1        0.0065
      9 C          60.1016   89.7194    8.9408 C.ar    1  UNL1        0.0018
     10 C          60.9809   89.4970   10.1355 C.ar    1  UNL1        0.0146
     11 C          61.4781   88.1182   10.4544 C.ar    1  UNL1        0.0503
     12 N          62.3521   87.5963   11.5561 N.am    1  UNL1       -0.2599
     13 C          62.9610   88.4104   12.6591 C.2     1  UNL1        0.2353
     14 O          63.8178   87.7465   13.6961 O.2     1  UNL1       -0.2741
     15 C          63.8685   90.8444   12.6998 C.ar    1  UNL1        0.0772
     16 N          64.5116   91.4177   11.4719 N.ar    1  UNL1       -0.2279
     17 C          65.6243   92.3229   11.9110 C.ar    1  UNL1        0.1629
     18 S          65.6689   92.3089   13.4103 S.2     1  UNL1       -0.0507
     19 C          64.5837   91.3952   13.8978 C.ar    1  UNL1        0.0601
     20 N          66.5329   93.1047   11.0092 N.pl3   1  UNL1       -0.2830
     21 C          66.3454   94.5850   10.8561 C.3     1  UNL1        0.1247
     22 C          67.2539   95.3668    9.9543 C.3     1  UNL1        0.1636
     23 O          68.3500   94.6683    9.2056 O.3     1  UNL1       -0.3501
     24 C          68.5375   93.1879    9.3587 C.3     1  UNL1        0.1636
     25 C          67.6289   92.4061   10.2605 C.3     1  UNL1        0.1247
     26 C          64.2690   91.0864   15.3316 C.2     1  UNL1        0.0801
     27 O          63.8677   89.6968   15.7289 O.co2   1  UNL1       -0.5440
     28 O          64.3557   92.1673   16.3680 O.co2   1  UNL1       -0.5440
@<TRIPOS>UNITY_ATOM_ATTR
27 1
charge -1
@<TRIPOS>BOND
     1     2     3    1
     2     3     4    1
     3     4     5    1
     4     5     6   ar
     5     6     7    1
     6     6     8   ar
     7     8     9   ar
     8     9    10   ar
     9    10    11   ar
    10    11    12    1
    11    12    13   am
    12    13    14    2
    13    13     1    1
    14     1    15    1
    15    15    16   ar
    16    16    17   ar
    17    17    20    1
    18    20    21    1
    19    21    22    1
    20    22    23    1
    21    23    24    1
    22    24    25    1
    23    17    18   ar
    24    18    19   ar
    25    19    26    1
    26    26    27   ar
    27    26    28   ar
    28    12     3    1
    29    19    15   ar
    30    11     5   ar
    31    25    20    1
@<TRIPOS>MOLECULE
*****
 28 31 0 0 0
SMALL
GASTEIGER

@<TRIPOS>ATOM
      1 C          62.3762   89.7603   12.6942 C.3     1  UNL1        0.1318
      2 C          60.8483   87.7133    8.6804 C.3     1  UNL1        0.0222
      3 C          61.5832   87.0716    9.8198 C.3     1  UNL1        0.0842
      4 C          61.9840   85.6290    9.9096 C.3     1  UNL1        0.0483
      5 C          62.6949   85.4257   11.2148 C.ar    1  UNL1       -0.0006
      6 C          63.3121   84.2115   11.8431 C.ar    1  UNL1        0.0318
      7 BR         63.2735   82.8945   11.1262 Br      1  UNL1       -0.0493
      8 C          63.9677   84.3144   13.1882 C.ar    1  UNL1        0.0065
      9 C          64.0063   85.6315   13.9051 C.ar    1  UNL1        0.0018
     10 C          63.3891   86.8457   13.2768 C.ar    1  UNL1        0.0146
     11 C          62.7334   86.7428   11.9316 C.ar    1  UNL1        0.0503
     12 N          62.0464   87.7600   11.0695 N.am    1  UNL1       -0.2599
     13 C          61.8559   89.2109   11.3992 C.2     1  UNL1        0.2353
     14 O          61.1450   90.1124   10.4337 O.2     1  UNL1       -0.2741
     15 C          63.5356   90.7122   12.6933 C.ar    1  UNL1        0.0772
     16 N          64.1500   91.3520   11.4838 N.ar    1  UNL1       -0.2279
     17 C          65.2782   92.2265   11.9447 C.ar    1  UNL1        0.1629
     18 S          65.3609   92.1273   13.4391 S.2     1  UNL1       -0.0507
     19 C          64.2839   91.1913   13.9018 C.ar    1  UNL1        0.0601
     20 N          66.1675   93.0550   11.0656 N.pl3   1  UNL1       -0.2830
     21 C          66.0071   94.5459   11.0286 C.3     1  UNL1        0.1247
     22 C          66.8964   95.3744   10.1495 C.3     1  UNL1        0.1636
     23 O          67.9460   94.7119    9.3074 O.3     1  UNL1       -0.3501
     24 C          68.1064   93.2209    9.3443 C.3     1  UNL1        0.1636
     25 C          67.2171   92.3925   10.2234 C.3     1  UNL1        0.1247
     26 C          64.0043   90.8027   15.3234 C.2     1  UNL1        0.0801
     27 O          63.7627   91.8625   16.3570 O.co2   1  UNL1       -0.5440
     28 O          63.9664   89.3542   15.7113 O.co2   1  UNL1       -0.5440
@<TRIPOS>UNITY_ATOM_ATTR
27 1
charge -1
@<TRIPOS>BOND
     1     2     3    1
     2     3     4    1
     3     4     5    1
     4     5     6   ar
     5     6     7    1
     6     6     8   ar
     7     8     9   ar
     8     9    10   ar
     9    10    11   ar
    10    11    12    1
    11    12    13   am
    12    13    14    2
    13    13     1    1
    14     1    15    1
    15    15    16   ar
    16    16    17   ar
    17    17    20    1
    18    20    21    1
    19    21    22    1
    20    22    23    1
    21    23    24    1
    22    24    25    1
    23    17    18   ar
    24    18    19   ar
    25    19    26    1
    26    26    27   ar
    27    26    28   ar
    28    12     3    1
    29    19    15   ar
    30    11     5   ar
    31    25    20    1
@<TRIPOS>MOLECULE
*****
 28 31 0 0 0
SMALL
GASTEIGER

@<TRIPOS>ATOM
      1 C          64.1274   88.4587   14.2311 C.3     1  UNL1        0.1318
      2 C          62.6698   90.5436   10.2107 C.3     1  UNL1        0.0222
      3 C          63.6494   91.0688   11.2180 C.3     1  UNL1        0.0842
      4 C          64.3707   92.3819   11.1448 C.3     1  UNL1        0.0483
      5 C          65.2468   92.4977   12.3569 C.ar    1  UNL1       -0.0006
      6 C          66.1851   93.5732   12.8180 C.ar    1  UNL1        0.0318
      7 BR         66.3651   94.8148   11.9957 Br      1  UNL1       -0.0493
      8 C          66.9435   93.4073   14.1015 C.ar    1  UNL1        0.0065
      9 C          66.7635   92.1657   14.9238 C.ar    1  UNL1        0.0018
     10 C          65.8252   91.0902   14.4626 C.ar    1  UNL1        0.0146
     11 C          65.0669   91.2561   13.1792 C.ar    1  UNL1        0.0503
     12 N          64.0796   90.3730   12.4753 N.am    1  UNL1       -0.2599
     13 C          63.6057   89.0300   12.9461 C.2     1  UNL1        0.2353
     14 O          62.6101   88.2581   12.1318 O.2     1  UNL1       -0.2741
     15 C          63.7509   87.0655   14.6402 C.ar    1  UNL1        0.0772
     16 N          63.7764   85.8510   13.7602 N.ar    1  UNL1       -0.2279
     17 C          63.3240   84.6772   14.5771 C.ar    1  UNL1        0.1629
     18 S          63.0190   85.1661   15.9620 S.2     1  UNL1       -0.0507
     19 C          63.2829   86.6423   16.0010 C.ar    1  UNL1        0.0601
     20 N          63.1987   83.2626   14.0940 N.pl3   1  UNL1       -0.2830
     21 C          64.2088   82.7052   13.1353 C.3     1  UNL1        0.1247
     22 C          64.0834   81.2907   12.6522 C.3     1  UNL1        0.1636
     23 O          62.9480   80.4336   13.1279 O.3     1  UNL1       -0.3501
     24 C          61.9380   80.9910   14.0866 C.3     1  UNL1        0.1636
     25 C          62.0633   82.4055   14.5696 C.3     1  UNL1        0.1247
     26 C          63.1092   87.5378   17.1917 C.2     1  UNL1        0.0801
     27 O          63.2309   89.0247   17.0359 O.co2   1  UNL1       -0.5440
     28 O          62.8137   86.9465   18.5382 O.co2   1  UNL1       -0.5440
@<TRIPOS>UNITY_ATOM_ATTR
27 1
charge -1
@<TRIPOS>BOND
     1     2     3    1
     2     3     4    1
     3     4     5    1
     4     5     6   ar
     5     6     7    1
     6     6     8   ar
     7     8     9   ar
     8     9    10   ar
     9    10    11   ar
    10    11    12    1
    11    12    13   am
    12    13    14    2
    13    13     1    1
    14     1    15    1
    15    15    16   ar
    16    16    17   ar
    17    17    20    1
    18    20    21    1
    19    21    22    1
    20    22    23    1
    21    23    24    1
    22    24    25    1
    23    17    18   ar
    24    18    19   ar
    25    19    26    1
    26    26    27   ar
    27    26    28   ar
    28    12     3    1
    29    19    15   ar
    30    11     5   ar
    31    25    20    1
@<TRIPOS>MOLECULE
*****
 28 31 0 0 0
SMALL
GASTEIGER

@<TRIPOS>ATOM
      1 C          62.4595   90.4888   11.8814 C.3     1  UNL1        0.1318
      2 C          66.1614   92.8923   10.1054 C.3     1  UNL1        0.0222
      3 C          65.8598   92.5970   11.5447 C.3     1  UNL1        0.0842
      4 C          66.6891   93.0143   12.7229 C.3     1  UNL1        0.0483
      5 C          66.0178   92.5078   13.9650 C.ar    1  UNL1       -0.0006
      6 C          66.3787   92.6172   15.4168 C.ar    1  UNL1        0.0318
      7 BR         67.6229   93.3476   15.8273 Br      1  UNL1       -0.0493
      8 C          65.4955   91.9963   16.4581 C.ar    1  UNL1        0.0065
      9 C          64.2513   91.2659   16.0475 C.ar    1  UNL1        0.0018
     10 C          63.8904   91.1564   14.5957 C.ar    1  UNL1        0.0146
     11 C          64.7736   91.7774   13.5545 C.ar    1  UNL1        0.0503
     12 N          64.6760   91.8325   12.0587 N.am    1  UNL1       -0.2599
     13 C          63.5859   91.2291   11.2235 C.2     1  UNL1        0.2353
     14 O          63.6222   91.3661    9.7301 O.2     1  UNL1       -0.2741
     15 C          62.2721   89.0234   11.6216 C.ar    1  UNL1        0.0772
     16 N          63.0090   87.9065   12.2994 N.ar    1  UNL1       -0.2279
     17 C          62.5073   86.6104   11.7351 C.ar    1  UNL1        0.1629
     18 S          61.4602   86.9263   10.7085 S.2     1  UNL1       -0.0507
     19 C          61.3149   88.4177   10.6383 C.ar    1  UNL1        0.0601
     20 N          62.9711   85.2392   12.1283 N.pl3   1  UNL1       -0.2830
     21 C          63.6416   85.0254   13.4530 C.3     1  UNL1        0.1247
     22 C          64.1054   83.6541   13.8462 C.3     1  UNL1        0.1636
     23 O          63.8986   82.4967   12.9147 O.3     1  UNL1       -0.3501
     24 C          63.2281   82.7106   11.5901 C.3     1  UNL1        0.1636
     25 C          62.7643   84.0818   11.1969 C.3     1  UNL1        0.1247
     26 C          60.3770   89.1709    9.7423 C.2     1  UNL1        0.0801
     27 O          60.0437   88.6321    8.3827 O.co2   1  UNL1       -0.5440
     28 O          59.7725   90.4631   10.2058 O.co2   1  UNL1       -0.5440
@<TRIPOS>UNITY_ATOM_ATTR
27 1
charge -1
@<TRIPOS>BOND
     1     2     3    1
     2     3     4    1
     3     4     5    1
     4     5     6   ar
     5     6     7    1
     6     6     8   ar
     7     8     9   ar
     8     9    10   ar
     9    10    11   ar
    10    11    12    1
    11    12    13   am
    12    13    14    2
    13    13     1    1
    14     1    15    1
    15    15    16   ar
    16    16    17   ar
    17    17    20    1
    18    20    21    1
    19    21    22    1
    20    22    23    1
    21    23    24    1
    22    24    25    1
    23    17    18   ar
    24    18    19   ar
    25    19    26    1
    26    26    27   ar
    27    26    28   ar
    28    12     3    1
    29    19    15   ar
    30    11     5   ar
    31    25    20    1
@<TRIPOS>MOLECULE
*****
 28 31 0 0 0
SMALL
GASTEIGER

@<TRIPOS>ATOM
      1 C          61.8010   87.4253   11.7254 C.3     1  UNL1        0.1318
      2 C          63.4463   84.2044    8.6343 C.3     1  UNL1        0.0222
      3 C          63.2371   84.0414   10.1107 C.3     1  UNL1        0.0842
      4 C          63.5143   82.8021   10.9089 C.3     1  UNL1        0.0483
      5 C          63.1625   83.0838   12.3396 C.ar    1  UNL1       -0.0006
      6 C          63.2286   82.2359   13.5752 C.ar    1  UNL1        0.0318
      7 BR         63.7231   80.8224   13.4892 Br      1  UNL1       -0.0493
      8 C          62.8002   82.8015   14.8967 C.ar    1  UNL1        0.0065
      9 C          62.3057   84.2150   14.9827 C.ar    1  UNL1        0.0018
     10 C          62.2396   85.0630   13.7472 C.ar    1  UNL1        0.0146
     11 C          62.6680   84.4974   12.4256 C.ar    1  UNL1        0.0503
     12 N          62.7141   85.0892   11.0481 N.am    1  UNL1       -0.2599
     13 C          62.3084   86.4839   10.6737 C.2     1  UNL1        0.2353
     14 O          62.4102   86.9372    9.2473 O.2     1  UNL1       -0.2741
     15 C          62.3820   88.8032   11.8420 C.ar    1  UNL1        0.0772
     16 N          63.6107   89.1794   12.6158 N.ar    1  UNL1       -0.2279
     17 C          63.8245   90.6556   12.4574 C.ar    1  UNL1        0.1629
     18 S          62.7278   91.1919   11.5857 S.2     1  UNL1       -0.0507
     19 C          61.8363   90.0470   11.2054 C.ar    1  UNL1        0.0601
     20 N          64.9391   91.4552   13.0642 N.pl3   1  UNL1       -0.2830
     21 C          65.5828   90.9973   14.3393 C.3     1  UNL1        0.1247
     22 C          66.6974   91.7969   14.9461 C.3     1  UNL1        0.1636
     23 O          67.1684   93.0545   14.2776 O.3     1  UNL1       -0.3501
     24 C          66.5247   93.5124   13.0025 C.3     1  UNL1        0.1636
     25 C          65.4100   92.7127   12.3957 C.3     1  UNL1        0.1247
     26 C          60.6138   90.1311   10.3403 C.2     1  UNL1        0.0801
     27 O          59.3890   90.8387   10.8395 O.co2   1  UNL1       -0.5440
     28 O          60.6161   89.5077    8.9759 O.co2   1  UNL1       -0.5440
@<TRIPOS>UNITY_ATOM_ATTR
27 1
charge -1
@<TRIPOS>BOND
     1     2     3    1
     2     3     4    1
     3     4     5    1
     4     5     6   ar
     5     6     7    1
     6     6     8   ar
     7     8     9   ar
     8     9    10   ar
     9    10    11   ar
    10    11    12    1
    11    12    13   am
    12    13    14    2
    13    13     1    1
    14     1    15    1
    15    15    16   ar
    16    16    17   ar
    17    17    20    1
    18    20    21    1
    19    21    22    1
    20    22    23    1
    21    23    24    1
    22    24    25    1
    23    17    18   ar
    24    18    19   ar
    25    19    26    1
    26    26    27   ar
    27    26    28   ar
    28    12     3    1
    29    19    15   ar
    30    11     5   ar
    31    25    20    1
@<TRIPOS>MOLECULE
*****
 28 31 0 0 0
SMALL
GASTEIGER

@<TRIPOS>ATOM
      1 C          62.2873   88.0770   12.2899 C.3     1  UNL1        0.1318
      2 C          62.9083   85.4826    8.3505 C.3     1  UNL1        0.0222
      3 C          62.8281   84.9997    9.7684 C.3     1  UNL1        0.0842
      4 C          62.9313   83.5734   10.2213 C.3     1  UNL1        0.0483
      5 C          62.7977   83.5506   11.7152 C.ar    1  UNL1       -0.0006
      6 C          62.8211   82.4263   12.7079 C.ar    1  UNL1        0.0318
      7 BR         63.0068   81.0142   12.2375 Br      1  UNL1       -0.0493
      8 C          62.6588   82.7143   14.1710 C.ar    1  UNL1        0.0065
      9 C          62.4731   84.1265   14.6414 C.ar    1  UNL1        0.0018
     10 C          62.4497   85.2507   13.6487 C.ar    1  UNL1        0.0146
     11 C          62.6120   84.9628   12.1856 C.ar    1  UNL1        0.0503
     12 N          62.6308   85.8583   10.9824 N.am    1  UNL1       -0.2599
     13 C          62.4790   87.3506   10.9917 C.2     1  UNL1        0.2353
     14 O          62.5188   88.1166    9.7025 O.2     1  UNL1       -0.2741
     15 C          63.2636   89.1363   12.7079 C.ar    1  UNL1        0.0772
     16 N          63.6221   90.3638   11.9237 N.ar    1  UNL1       -0.2279
     17 C          64.6328   91.1403   12.7146 C.ar    1  UNL1        0.1629
     18 S          64.8990   90.3928   13.9876 S.2     1  UNL1       -0.0507
     19 C          64.0527   89.1542   13.9834 C.ar    1  UNL1        0.0601
     20 N          65.2662   92.4367   12.3045 N.pl3   1  UNL1       -0.2830
     21 C          65.1929   92.8885   10.8761 C.3     1  UNL1        0.1247
     22 C          65.8262   94.1849   10.4660 C.3     1  UNL1        0.1636
     23 O          66.5329   95.0295   11.4844 O.3     1  UNL1       -0.3501
     24 C          66.6063   94.5777   12.9129 C.3     1  UNL1        0.1636
     25 C          65.9729   93.2813   13.3230 C.3     1  UNL1        0.1247
     26 C          64.0042   88.1159   15.0649 C.2     1  UNL1        0.0801
     27 O          64.8620   86.8894   14.9661 O.co2   1  UNL1       -0.5440
     28 O          63.0978   88.3043   16.2452 O.co2   1  UNL1       -0.5440
@<TRIPOS>UNITY_ATOM_ATTR
27 1
charge -1
@<TRIPOS>BOND
     1     2     3    1
     2     3     4    1
     3     4     5    1
     4     5     6   ar
     5     6     7    1
     6     6     8   ar
     7     8     9   ar
     8     9    10   ar
     9    10    11   ar
    10    11    12    1
    11    12    13   am
    12    13    14    2
    13    13     1    1
    14     1    15    1
    15    15    16   ar
    16    16    17   ar
    17    17    20    1
    18    20    21    1
    19    21    22    1
    20    22    23    1
    21    23    24    1
    22    24    25    1
    23    17    18   ar
    24    18    19   ar
    25    19    26    1
    26    26    27   ar
    27    26    28   ar
    28    12     3    1
    29    19    15   ar
    30    11     5   ar
    31    25    20    1
@<TRIPOS>MOLECULE
*****
 28 31 0 0 0
SMALL
GASTEIGER

@<TRIPOS>ATOM
      1 C          62.4705   90.4998   11.8643 C.3     1  UNL1        0.1318
      2 C          66.1654   92.9607   10.1532 C.3     1  UNL1        0.0222
      3 C          65.8588   92.6357   11.5851 C.3     1  UNL1        0.0842
      4 C          66.6797   93.0354   12.7752 C.3     1  UNL1        0.0483
      5 C          66.0057   92.5007   14.0040 C.ar    1  UNL1       -0.0006
      6 C          66.3589   92.5843   15.4593 C.ar    1  UNL1        0.0318
      7 BR         67.5964   93.3145   15.8900 Br      1  UNL1       -0.0493
      8 C          65.4747   91.9378   16.4840 C.ar    1  UNL1        0.0065
      9 C          64.2372   91.2076   16.0534 C.ar    1  UNL1        0.0018
     10 C          63.8840   91.1239   14.5980 C.ar    1  UNL1        0.0146
     11 C          64.7682   91.7705   13.5733 C.ar    1  UNL1        0.0503
     12 N          64.6774   91.8539   12.0784 N.am    1  UNL1       -0.2599
     13 C          63.5953   91.2599   11.2263 C.2     1  UNL1        0.2353
     14 O          63.6379   91.4260    9.7360 O.2     1  UNL1       -0.2741
     15 C          61.7630   89.4225   11.0969 C.ar    1  UNL1        0.0772
     16 N          62.3950   88.4755   10.1203 N.ar    1  UNL1       -0.2279
     17 C          61.3220   87.5707    9.5913 C.ar    1  UNL1        0.1629
     18 S          60.0267   87.9585   10.2409 S.2     1  UNL1       -0.0507
     19 C          60.2993   89.1030   11.1715 C.ar    1  UNL1        0.0601
     20 N          61.5109   86.4712    8.5887 N.pl3   1  UNL1       -0.2830
     21 C          60.3852   86.0886    7.6741 C.3     1  UNL1        0.1247
     22 C          60.5741   84.9890    6.6714 C.3     1  UNL1        0.1636
     23 O          61.8887   84.2721    6.5834 O.3     1  UNL1       -0.3501
     24 C          63.0144   84.6546    7.4980 C.3     1  UNL1        0.1636
     25 C          62.8254   85.7542    8.5007 C.3     1  UNL1        0.1247
     26 C          59.2861   89.8048   12.0265 C.2     1  UNL1        0.0801
     27 O          58.8268   91.1860   11.6642 O.co2   1  UNL1       -0.5440
     28 O          58.7323   89.1253   13.2437 O.co2   1  UNL1       -0.5440
@<TRIPOS>UNITY_ATOM_ATTR
27 1
charge -1
@<TRIPOS>BOND
     1     2     3    1
     2     3     4    1
     3     4     5    1
     4     5     6   ar
     5     6     7    1
     6     6     8   ar
     7     8     9   ar
     8     9    10   ar
     9    10    11   ar
    10    11    12    1
    11    12    13   am
    12    13    14    2
    13    13     1    1
    14     1    15    1
    15    15    16   ar
    16    16    17   ar
    17    17    20    1
    18    20    21    1
    19    21    22    1
    20    22    23    1
    21    23    24    1
    22    24    25    1
    23    17    18   ar
    24    18    19   ar
    25    19    26    1
    26    26    27   ar
    27    26    28   ar
    28    12     3    1
    29    19    15   ar
    30    11     5   ar
    31    25    20    1
@<TRIPOS>MOLECULE
*****
 28 31 0 0 0
SMALL
GASTEIGER

@<TRIPOS>ATOM
      1 C          62.9582   90.1006   13.8998 C.3     1  UNL1        0.1318
      2 C          63.7986   85.4183   13.8249 C.3     1  UNL1        0.0222
      3 C          63.0921   86.2441   12.7910 C.3     1  UNL1        0.0842
      4 C          62.5035   85.7360   11.5083 C.3     1  UNL1        0.0483
      5 C          61.8977   86.9008   10.7828 C.ar    1  UNL1       -0.0006
      6 C          61.1788   87.0019    9.4702 C.ar    1  UNL1        0.0318
      7 BR         60.9647   85.7739    8.6358 Br      1  UNL1       -0.0493
      8 C          60.6739   88.3309    8.9921 C.ar    1  UNL1        0.0065
      9 C          60.8880   89.5589    9.8265 C.ar    1  UNL1        0.0018
     10 C          61.6069   89.4578   11.1391 C.ar    1  UNL1        0.0146
     11 C          62.1118   88.1287   11.6172 C.ar    1  UNL1        0.0503
     12 N          62.8499   87.7229   12.8584 N.am    1  UNL1       -0.2599
     13 C          63.2719   88.6356   13.9714 C.2     1  UNL1        0.2353
     14 O          64.0076   88.0832   15.1563 O.2     1  UNL1       -0.2741
     15 C          64.0490   91.0877   13.6068 C.ar    1  UNL1        0.0772
     16 N          64.5825   91.4348   12.2485 N.ar    1  UNL1       -0.2279
     17 C          65.6610   92.4627   12.4229 C.ar    1  UNL1        0.1629
     18 S          65.7940   92.7509   13.8889 S.2     1  UNL1       -0.0507
     19 C          64.7977   91.9011   14.6206 C.ar    1  UNL1        0.0601
     20 N          66.4652   93.0919   11.3242 N.pl3   1  UNL1       -0.2830
     21 C          67.3665   92.2452   10.4751 C.3     1  UNL1        0.1247
     22 C          68.1708   92.8744    9.3764 C.3     1  UNL1        0.1636
     23 O          68.0738   94.3503    9.1267 O.3     1  UNL1       -0.3501
     24 C          67.1725   95.1970    9.9758 C.3     1  UNL1        0.1636
     25 C          66.3682   94.5678   11.0745 C.3     1  UNL1        0.1247
     26 C          64.5871   91.8702   16.1055 C.2     1  UNL1        0.0801
     27 O          63.4121   91.1368   16.6812 O.co2   1  UNL1       -0.5440
     28 O          65.5516   92.5727   17.0146 O.co2   1  UNL1       -0.5440
@<TRIPOS>UNITY_ATOM_ATTR
27 1
charge -1
@<TRIPOS>BOND
     1     2     3    1
     2     3     4    1
     3     4     5    1
     4     5     6   ar
     5     6     7    1
     6     6     8   ar
     7     8     9   ar
     8     9    10   ar
     9    10    11   ar
    10    11    12    1
    11    12    13   am
    12    13    14    2
    13    13     1    1
    14     1    15    1
    15    15    16   ar
    16    16    17   ar
    17    17    20    1
    18    20    21    1
    19    21    22    1
    20    22    23    1
    21    23    24    1
    22    24    25    1
    23    17    18   ar
    24    18    19   ar
    25    19    26    1
    26    26    27   ar
    27    26    28   ar
    28    12     3    1
    29    19    15   ar
    30    11     5   ar
    31    25    20    1
