@<TRIPOS>MOLECULE
*****
 17 18 0 0 0
SMALL
GASTEIGER

@<TRIPOS>ATOM
      1 C          63.8360   83.3835   11.6449 C.ar    1  UNL1        0.1386
      2 C          62.9721   84.3085   12.4499 C.ar    1  UNL1        0.0369
      3 C          62.1803   85.3821   11.7641 C.ar    1  UNL1        0.0046
      4 C          62.2523   85.5308   10.2733 C.ar    1  UNL1        0.0178
      5 C          63.1162   84.6058    9.4683 C.ar    1  UNL1        0.0046
      6 C          63.9081   83.5322   10.1541 C.ar    1  UNL1        0.0369
      7 C          61.4605   86.6044    9.5875 C.ar    1  UNL1        0.0813
      8 C          60.4988   86.2445    8.4940 C.ar    1  UNL1        0.0191
      9 C          59.7070   87.3181    7.8082 C.ar    1  UNL1        0.0031
     10 C          59.8768   88.7516    8.2159 C.ar    1  UNL1        0.0207
     11 C          60.8384   89.1115    9.3094 C.ar    1  UNL1        0.0988
     12 N          61.6302   88.0379    9.9952 N.ar    1  UNL1       -0.2438
     13 O          64.6279   82.3099   12.3307 O.3     1  UNL1       -0.4755
     14 C          63.9741   81.4385   13.3617 C.3     1  UNL1        0.2054
     15 C          62.5805   80.9299   13.1394 C.3     1  UNL1        0.0473
     16 C          60.2223   80.4977   14.1403 C.3     1  UNL1        0.0001
     17 C          61.4836   81.3079   14.0902 C.3     1  UNL1        0.0038
@<TRIPOS>BOND
     1    16    17    1
     2    17    15    1
     3    15    14    1
     4    14    13    1
     5    13     1    1
     6     1     2   ar
     7     2     3   ar
     8     3     4   ar
     9     4     7    1
    10     7     8   ar
    11     8     9   ar
    12     9    10   ar
    13    10    11   ar
    14    11    12   ar
    15     4     5   ar
    16     5     6   ar
    17     6     1   ar
    18    12     7   ar
@<TRIPOS>MOLECULE
*****
 17 18 0 0 0
SMALL
GASTEIGER

@<TRIPOS>ATOM
      1 C          63.9902   91.0983   12.4262 C.ar    1  UNL1        0.1386
      2 C          63.6226   91.5410   11.0410 C.ar    1  UNL1        0.0369
      3 C          62.8550   90.6210   10.1386 C.ar    1  UNL1        0.0046
      4 C          62.4551   89.2583   10.6213 C.ar    1  UNL1        0.0178
      5 C          62.8228   88.8156   12.0065 C.ar    1  UNL1        0.0046
      6 C          63.5904   89.7356   12.9090 C.ar    1  UNL1        0.0369
      7 C          61.6876   88.3383    9.7189 C.ar    1  UNL1        0.0813
      8 C          62.1916   86.9495    9.4594 C.ar    1  UNL1        0.0191
      9 C          61.4240   86.0295    8.5570 C.ar    1  UNL1        0.0031
     10 C          60.1525   86.4982    7.9140 C.ar    1  UNL1        0.0207
     11 C          59.6485   87.8869    8.1735 C.ar    1  UNL1        0.0988
     12 N          60.4160   88.8069    9.0759 N.ar    1  UNL1       -0.2438
     13 O          64.7578   92.0184   13.3287 O.3     1  UNL1       -0.4755
     14 C          66.0946   92.5465   12.8999 C.3     1  UNL1        0.2054
     15 C          67.3474   92.0234   13.5378 C.3     1  UNL1        0.0473
     16 C          67.3100   92.7052   16.0445 C.3     1  UNL1        0.0001
     17 C          67.3472   91.6408   14.9882 C.3     1  UNL1        0.0038
@<TRIPOS>BOND
     1    16    17    1
     2    17    15    1
     3    15    14    1
     4    14    13    1
     5    13     1    1
     6     1     2   ar
     7     2     3   ar
     8     3     4   ar
     9     4     7    1
    10     7     8   ar
    11     8     9   ar
    12     9    10   ar
    13    10    11   ar
    14    11    12   ar
    15     4     5   ar
    16     5     6   ar
    17     6     1   ar
    18    12     7   ar
@<TRIPOS>MOLECULE
*****
 17 18 0 0 0
SMALL
GASTEIGER

@<TRIPOS>ATOM
      1 C          62.4022   89.4609   10.5738 C.ar    1  UNL1        0.1386
      2 C          62.7498   88.9443   11.9385 C.ar    1  UNL1        0.0369
      3 C          63.6760   89.7255   12.8227 C.ar    1  UNL1        0.0046
      4 C          64.2546   91.0233   12.3423 C.ar    1  UNL1        0.0178
      5 C          63.9070   91.5399   10.9777 C.ar    1  UNL1        0.0046
      6 C          62.9809   90.7587   10.0934 C.ar    1  UNL1        0.0369
      7 C          65.1808   91.8045   13.2265 C.ar    1  UNL1        0.0813
      8 C          65.6574   91.2147   14.5207 C.ar    1  UNL1        0.0191
      9 C          66.5836   91.9959   15.4049 C.ar    1  UNL1        0.0031
     10 C          67.0331   93.3670   14.9950 C.ar    1  UNL1        0.0207
     11 C          66.5565   93.9568   13.7009 C.ar    1  UNL1        0.0988
     12 N          65.6303   93.1756   12.8166 N.ar    1  UNL1       -0.2438
     13 O          61.4761   88.6796    9.6896 O.3     1  UNL1       -0.4755
     14 C          60.5928   87.6200   10.2786 C.3     1  UNL1        0.2054
     15 C          61.0413   86.1887   10.2864 C.3     1  UNL1        0.0473
     16 C          62.7346   85.5787    8.4126 C.3     1  UNL1        0.0001
     17 C          62.4359   85.8374    9.8596 C.3     1  UNL1        0.0038
@<TRIPOS>BOND
     1    16    17    1
     2    17    15    1
     3    15    14    1
     4    14    13    1
     5    13     1    1
     6     1     2   ar
     7     2     3   ar
     8     3     4   ar
     9     4     7    1
    10     7     8   ar
    11     8     9   ar
    12     9    10   ar
    13    10    11   ar
    14    11    12   ar
    15     4     5   ar
    16     5     6   ar
    17     6     1   ar
    18    12     7   ar
@<TRIPOS>MOLECULE
*****
 17 18 0 0 0
SMALL
GASTEIGER

@<TRIPOS>ATOM
      1 C          63.5471   90.6447   12.8735 C.ar    1  UNL1        0.1386
      2 C          64.7303   91.3350   13.4845 C.ar    1  UNL1        0.0369
      3 C          65.5686   92.2620   12.6551 C.ar    1  UNL1        0.0046
      4 C          65.2237   92.4987   11.2147 C.ar    1  UNL1        0.0178
      5 C          64.0404   91.8084   10.6036 C.ar    1  UNL1        0.0046
      6 C          63.2021   90.8815   11.4331 C.ar    1  UNL1        0.0369
      7 C          66.0620   93.4257   10.3852 C.ar    1  UNL1        0.0813
      8 C          67.3232   92.9261    9.7452 C.ar    1  UNL1        0.0191
      9 C          68.1615   93.8531    8.9158 C.ar    1  UNL1        0.0031
     10 C          67.7386   95.2796    8.7263 C.ar    1  UNL1        0.0207
     11 C          66.4773   95.7792    9.3663 C.ar    1  UNL1        0.0988
     12 N          65.6390   94.8522   10.1958 N.ar    1  UNL1       -0.2438
     13 O          62.7088   89.7177   13.7030 O.3     1  UNL1       -0.4755
     14 C          63.0126   89.5333   15.1602 C.3     1  UNL1        0.2054
     15 C          64.0227   88.5120   15.5923 C.3     1  UNL1        0.0473
     16 C          64.4944   86.0043   15.1035 C.3     1  UNL1        0.0001
     17 C          64.4497   87.4313   14.6436 C.3     1  UNL1        0.0038
@<TRIPOS>BOND
     1    16    17    1
     2    17    15    1
     3    15    14    1
     4    14    13    1
     5    13     1    1
     6     1     2   ar
     7     2     3   ar
     8     3     4   ar
     9     4     7    1
    10     7     8   ar
    11     8     9   ar
    12     9    10   ar
    13    10    11   ar
    14    11    12   ar
    15     4     5   ar
    16     5     6   ar
    17     6     1   ar
    18    12     7   ar
@<TRIPOS>MOLECULE
*****
 17 18 0 0 0
SMALL
GASTEIGER

@<TRIPOS>ATOM
      1 C          63.5444   84.5195   12.5731 C.ar    1  UNL1        0.1386
      2 C          62.9951   83.8450   11.3511 C.ar    1  UNL1        0.0369
      3 C          62.1747   84.6264   10.3680 C.ar    1  UNL1        0.0046
      4 C          61.9037   86.0822   10.6069 C.ar    1  UNL1        0.0178
      5 C          62.4530   86.7566   11.8288 C.ar    1  UNL1        0.0046
      6 C          63.2734   85.9753   12.8120 C.ar    1  UNL1        0.0369
      7 C          61.0833   86.8635    9.6238 C.ar    1  UNL1        0.0813
      8 C          60.3069   86.1478    8.5585 C.ar    1  UNL1        0.0191
      9 C          59.4865   86.9291    7.5754 C.ar    1  UNL1        0.0031
     10 C          59.4426   88.4262    7.6576 C.ar    1  UNL1        0.0207
     11 C          60.2190   89.1419    8.7228 C.ar    1  UNL1        0.0988
     12 N          61.0394   88.3606    9.7059 N.ar    1  UNL1       -0.2438
     13 O          64.3648   83.7381   13.5562 O.3     1  UNL1       -0.4755
     14 C          63.6887   82.9547   14.6420 C.3     1  UNL1        0.2054
     15 C          62.4262   82.2001   14.3476 C.3     1  UNL1        0.0473
     16 C          62.6380   80.4830   12.4093 C.3     1  UNL1        0.0001
     17 C          62.4953   80.7788   13.8729 C.3     1  UNL1        0.0038
@<TRIPOS>BOND
     1    16    17    1
     2    17    15    1
     3    15    14    1
     4    14    13    1
     5    13     1    1
     6     1     2   ar
     7     2     3   ar
     8     3     4   ar
     9     4     7    1
    10     7     8   ar
    11     8     9   ar
    12     9    10   ar
    13    10    11   ar
    14    11    12   ar
    15     4     5   ar
    16     5     6   ar
    17     6     1   ar
    18    12     7   ar
@<TRIPOS>MOLECULE
*****
 17 18 0 0 0
SMALL
GASTEIGER

@<TRIPOS>ATOM
      1 C          63.9594   87.6776   13.6700 C.ar    1  UNL1        0.1386
      2 C          64.4204   86.7084   14.7179 C.ar    1  UNL1        0.0369
      3 C          64.0822   85.2524   14.5936 C.ar    1  UNL1        0.0046
      4 C          63.2829   84.7655   13.4215 C.ar    1  UNL1        0.0178
      5 C          62.8218   85.7346   12.3736 C.ar    1  UNL1        0.0046
      6 C          63.1601   87.1907   12.4979 C.ar    1  UNL1        0.0369
      7 C          62.9446   83.3094   13.2972 C.ar    1  UNL1        0.0813
      8 C          63.3792   82.5392   12.0857 C.ar    1  UNL1        0.0191
      9 C          63.0409   81.0831   11.9614 C.ar    1  UNL1        0.0031
     10 C          62.2680   80.3973   13.0487 C.ar    1  UNL1        0.0207
     11 C          61.8335   81.1675   14.2603 C.ar    1  UNL1        0.0988
     12 N          62.1717   82.6235   14.3845 N.ar    1  UNL1       -0.2438
     13 O          64.2977   89.1337   13.7943 O.3     1  UNL1       -0.4755
     14 C          63.3548   90.1709   13.2604 C.3     1  UNL1        0.2054
     15 C          63.6968   90.9215   12.0075 C.3     1  UNL1        0.0473
     16 C          62.4749   89.7175   10.0562 C.3     1  UNL1        0.0001
     17 C          62.7254   90.9557   10.8649 C.3     1  UNL1        0.0038
@<TRIPOS>BOND
     1    16    17    1
     2    17    15    1
     3    15    14    1
     4    14    13    1
     5    13     1    1
     6     1     2   ar
     7     2     3   ar
     8     3     4   ar
     9     4     7    1
    10     7     8   ar
    11     8     9   ar
    12     9    10   ar
    13    10    11   ar
    14    11    12   ar
    15     4     5   ar
    16     5     6   ar
    17     6     1   ar
    18    12     7   ar
@<TRIPOS>MOLECULE
*****
 17 18 0 0 0
SMALL
GASTEIGER

@<TRIPOS>ATOM
      1 C          64.0456   88.5372   13.7435 C.ar    1  UNL1        0.1386
      2 C          64.4893   87.5137   14.7463 C.ar    1  UNL1        0.0369
      3 C          64.1844   86.0623   14.5218 C.ar    1  UNL1        0.0046
      4 C          63.4359   85.6343   13.2944 C.ar    1  UNL1        0.0178
      5 C          62.9922   86.6578   12.2916 C.ar    1  UNL1        0.0046
      6 C          63.2971   88.1092   12.5162 C.ar    1  UNL1        0.0369
      7 C          63.1310   84.1829   13.0698 C.ar    1  UNL1        0.0813
      8 C          63.3960   83.5592   11.7317 C.ar    1  UNL1        0.0191
      9 C          63.0912   82.1077   11.5072 C.ar    1  UNL1        0.0031
     10 C          62.5212   81.2801   12.6207 C.ar    1  UNL1        0.0207
     11 C          62.2561   81.9038   13.9588 C.ar    1  UNL1        0.0988
     12 N          62.5610   83.3552   14.1834 N.ar    1  UNL1       -0.2438
     13 O          64.3505   89.9886   13.9681 O.3     1  UNL1       -0.4755
     14 C          64.0182   90.9974   12.9090 C.3     1  UNL1        0.2054
     15 C          65.0345   92.0243   12.5060 C.3     1  UNL1        0.0473
     16 C          67.4531   91.9762   13.4538 C.3     1  UNL1        0.0001
     17 C          66.0500   92.5048   13.5000 C.3     1  UNL1        0.0038
@<TRIPOS>BOND
     1    16    17    1
     2    17    15    1
     3    15    14    1
     4    14    13    1
     5    13     1    1
     6     1     2   ar
     7     2     3   ar
     8     3     4   ar
     9     4     7    1
    10     7     8   ar
    11     8     9   ar
    12     9    10   ar
    13    10    11   ar
    14    11    12   ar
    15     4     5   ar
    16     5     6   ar
    17     6     1   ar
    18    12     7   ar
@<TRIPOS>MOLECULE
*****
 17 18 0 0 0
SMALL
GASTEIGER

@<TRIPOS>ATOM
      1 C          62.0925   87.3776    9.9243 C.ar    1  UNL1        0.1386
      2 C          61.7231   87.2277   11.3703 C.ar    1  UNL1        0.0369
      3 C          61.9090   85.9082   12.0591 C.ar    1  UNL1        0.0046
      4 C          62.4643   84.7386   11.3018 C.ar    1  UNL1        0.0178
      5 C          62.8337   84.8884    9.8558 C.ar    1  UNL1        0.0046
      6 C          62.6478   86.2079    9.1670 C.ar    1  UNL1        0.0369
      7 C          62.6502   83.4191   11.9905 C.ar    1  UNL1        0.0813
      8 C          62.9394   82.1870   11.1854 C.ar    1  UNL1        0.0191
      9 C          63.1253   80.8675   11.8741 C.ar    1  UNL1        0.0031
     10 C          63.0221   80.7801   13.3680 C.ar    1  UNL1        0.0207
     11 C          62.7329   82.0122   14.1731 C.ar    1  UNL1        0.0988
     12 N          62.5470   83.3317   13.4844 N.ar    1  UNL1       -0.2438
     13 O          61.9066   88.6971    9.2356 O.3     1  UNL1       -0.4755
     14 C          60.5247   89.2214    8.9798 C.3     1  UNL1        0.2054
     15 C          59.7190   88.6847    7.8340 C.3     1  UNL1        0.0473
     16 C          59.5808   86.1104    7.5116 C.3     1  UNL1        0.0001
     17 C          58.9677   87.3951    7.9845 C.3     1  UNL1        0.0038
@<TRIPOS>BOND
     1    16    17    1
     2    17    15    1
     3    15    14    1
     4    14    13    1
     5    13     1    1
     6     1     2   ar
     7     2     3   ar
     8     3     4   ar
     9     4     7    1
    10     7     8   ar
    11     8     9   ar
    12     9    10   ar
    13    10    11   ar
    14    11    12   ar
    15     4     5   ar
    16     5     6   ar
    17     6     1   ar
    18    12     7   ar
@<TRIPOS>MOLECULE
*****
 17 18 0 0 0
SMALL
GASTEIGER

@<TRIPOS>ATOM
      1 C          63.5937   87.5289   13.1806 C.ar    1  UNL1        0.1386
      2 C          64.1690   86.6241   14.2295 C.ar    1  UNL1        0.0369
      3 C          63.9347   85.1444   14.1541 C.ar    1  UNL1        0.0046
      4 C          63.1251   84.5696   13.0298 C.ar    1  UNL1        0.0178
      5 C          62.5499   85.4744   11.9809 C.ar    1  UNL1        0.0046
      6 C          62.7842   86.9541   12.0563 C.ar    1  UNL1        0.0369
      7 C          62.8908   83.0899   12.9544 C.ar    1  UNL1        0.0813
      8 C          62.3255   82.3589   14.1360 C.ar    1  UNL1        0.0191
      9 C          62.0912   80.8793   14.0606 C.ar    1  UNL1        0.0031
     10 C          62.4221   80.1306   12.8037 C.ar    1  UNL1        0.0207
     11 C          62.9874   80.8616   11.6221 C.ar    1  UNL1        0.0988
     12 N          63.2217   82.3413   11.6975 N.ar    1  UNL1       -0.2438
     13 O          63.8281   89.0086   13.2560 O.3     1  UNL1       -0.4755
     14 C          64.6454   89.5824   14.3752 C.3     1  UNL1        0.2054
     15 C          64.0224   90.5462   15.3412 C.3     1  UNL1        0.0473
     16 C          63.1732   88.6160   16.8588 C.3     1  UNL1        0.0001
     17 C          63.0951   90.0445   16.4082 C.3     1  UNL1        0.0038
@<TRIPOS>BOND
     1    16    17    1
     2    17    15    1
     3    15    14    1
     4    14    13    1
     5    13     1    1
     6     1     2   ar
     7     2     3   ar
     8     3     4   ar
     9     4     7    1
    10     7     8   ar
    11     8     9   ar
    12     9    10   ar
    13    10    11   ar
    14    11    12   ar
    15     4     5   ar
    16     5     6   ar
    17     6     1   ar
    18    12     7   ar
