@<TRIPOS>MOLECULE
*****
 39 43 0 0 0
SMALL
GASTEIGER

@<TRIPOS>ATOM
      1 C          58.6313   88.9725    6.6824 C.3     1  UNL1        0.2374
      2 C          59.4433   88.0096    7.4970 C.3     1  UNL1        0.1909
      3 C          59.1915   86.5370    7.6309 C.3     1  UNL1        0.1783
      4 O          60.2421   85.9675    8.5374 O.3     1  UNL1       -0.3267
      5 C          61.1434   87.0882    8.9638 C.3     1  UNL1        0.2296
      6 O          60.6497   88.3503    8.3209 O.3     1  UNL1       -0.3255
      7 C          61.8566   86.0135    9.7293 C.ar    1  UNL1        0.0409
      8 C          61.6235   85.8620   11.2034 C.ar    1  UNL1        0.0022
      9 C          62.3368   84.7872   11.9690 C.ar    1  UNL1        0.0113
     10 C          63.2832   83.8640   11.2605 C.ar    1  UNL1        0.0585
     11 CL         63.9965   82.7892   12.0261 Cl      1  UNL1       -0.0822
     12 C          63.5163   84.0154    9.7865 C.ar    1  UNL1        0.0226
     13 C          62.8030   85.0901    9.0209 C.ar    1  UNL1        0.0591
     14 CL         63.0361   85.2417    7.5469 Cl      1  UNL1       -0.0824
     15 C          62.1937   87.9843    9.5503 C.3     1  UNL1        0.1682
     16 N          61.8986   88.7737   10.7911 N.ar    1  UNL1       -0.3025
     17 C          62.9123   89.4329   11.6786 C.ar    1  UNL1        0.0982
     18 C          62.1782   90.1091   12.7983 C.ar    1  UNL1        0.1193
     19 N          60.7107   89.8679   12.6028 N.ar    1  UNL1       -0.2223
     20 C          60.5379   89.0426   11.3622 C.ar    1  UNL1        0.1788
     21 O          58.9764   90.4322    6.6829 O.3     1  UNL1       -0.4727
     22 C          61.0839   92.2474    3.1455 C.ar    1  UNL1        0.0481
     23 C          59.6796   92.6594    3.4743 C.ar    1  UNL1        0.0176
     24 C          58.9771   92.0543    4.6535 C.ar    1  UNL1        0.0382
     25 C          59.6789   91.0373    5.5038 C.ar    1  UNL1        0.1388
     26 C          61.0832   90.6253    5.1749 C.ar    1  UNL1        0.0382
     27 C          61.7857   91.2304    3.9958 C.ar    1  UNL1        0.0176
     28 N          63.1914   94.0625   -0.3920 N.3     1  UNL1       -0.1560
     29 C          61.7188   93.7851   -0.4576 C.3     1  UNL1        0.1168
     30 C          61.0162   93.1801    0.7215 C.3     1  UNL1        0.1099
     31 N          61.7864   92.8524    1.9663 N.pl3   1  UNL1       -0.3045
     32 C          63.2590   93.1298    2.0319 C.3     1  UNL1        0.1099
     33 C          63.9615   93.7349    0.8528 C.3     1  UNL1        0.1168
     34 S          63.8939   94.6676   -1.5712 S.O2    1  UNL1        0.0422
     35 O          65.0336   95.0728   -0.6842 O.2     1  UNL1       -0.1573
     36 O          62.7541   94.2623   -2.4581 O.2     1  UNL1       -0.1573
     37 C          64.5397   94.5936   -4.0866 C.3     1  UNL1        0.0270
     38 C          64.5964   95.2726   -2.7503 C.3     1  UNL1        0.1459
     39 C          65.3556   96.5567   -2.5932 C.3     1  UNL1        0.0270
@<TRIPOS>BOND
     1    37    38    1
     2    38    39    1
     3    38    34    1
     4    34    35    2
     5    34    36    2
     6    34    28    1
     7    28    29    1
     8    29    30    1
     9    30    31    1
    10    31    22    1
    11    22    23   ar
    12    23    24   ar
    13    24    25   ar
    14    25    21    1
    15    21     1    1
    16     2     1    1
    17     2     3    1
    18     3     4    1
    19     4     5    1
    20     5    15    1
    21    15    16    1
    22    16    17   ar
    23    17    18   ar
    24    18    19   ar
    25    19    20   ar
    26     5     7    1
    27     7     8   ar
    28     8     9   ar
    29     9    10   ar
    30    10    11    1
    31    10    12   ar
    32    12    13   ar
    33    13    14    1
    34     5     6    1
    35    25    26   ar
    36    26    27   ar
    37    31    32    1
    38    32    33    1
    39    33    28    1
    40    27    22   ar
    41     6     2    1
    42    20    16   ar
    43    13     7   ar
@<TRIPOS>MOLECULE
*****
 39 43 0 0 0
SMALL
GASTEIGER

@<TRIPOS>ATOM
      1 C          58.6936   91.4886    5.2563 C.3     1  UNL1        0.2374
      2 C          59.6803   92.0642    4.2841 C.3     1  UNL1        0.1909
      3 C          61.0926   91.6008    4.0827 C.3     1  UNL1        0.1783
      4 O          61.7131   92.4545    3.0168 O.3     1  UNL1       -0.3267
      5 C          60.6843   93.4456    2.5594 C.3     1  UNL1        0.2296
      6 O          59.4279   93.2044    3.3426 O.3     1  UNL1       -0.3255
      7 C          61.7731   93.9144    1.6404 C.ar    1  UNL1        0.0409
      8 C          62.4513   95.2288    1.8904 C.ar    1  UNL1        0.0022
      9 C          63.5402   95.6977    0.9714 C.ar    1  UNL1        0.0113
     10 C          63.9508   94.8522   -0.1976 C.ar    1  UNL1        0.0585
     11 CL         65.0397   95.3210   -1.1166 Cl      1  UNL1       -0.0822
     12 C          63.2726   93.5377   -0.4475 C.ar    1  UNL1        0.0226
     13 C          62.1838   93.0689    0.4714 C.ar    1  UNL1        0.0591
     14 CL         61.5056   91.7546    0.2215 Cl      1  UNL1       -0.0824
     15 C          59.8830   94.5347    1.9099 C.3     1  UNL1        0.1682
     16 N          59.1789   94.2752    0.6111 N.ar    1  UNL1       -0.3025
     17 C          58.4941   92.9997    0.2189 C.ar    1  UNL1        0.0982
     18 C          57.9280   93.1819   -1.1581 C.ar    1  UNL1        0.1193
     19 N          58.2630   94.5702   -1.6170 N.ar    1  UNL1       -0.2223
     20 C          59.0361   95.2459   -0.5236 C.ar    1  UNL1        0.1788
     21 O          58.6083   90.0033    5.4475 O.3     1  UNL1       -0.4727
     22 C          60.6768   88.0620    8.9407 C.ar    1  UNL1        0.0481
     23 C          60.0418   87.2137    7.8791 C.ar    1  UNL1        0.0176
     24 C          59.3523   87.8608    6.7147 C.ar    1  UNL1        0.0382
     25 C          59.2978   89.3562    6.6119 C.ar    1  UNL1        0.1388
     26 C          59.9328   90.2046    7.6735 C.ar    1  UNL1        0.0382
     27 C          60.6224   89.5575    8.8379 C.ar    1  UNL1        0.0176
     28 N          62.7454   86.1207   12.4339 N.3     1  UNL1       -0.1560
     29 C          61.9203   85.2911   11.4953 C.3     1  UNL1        0.1168
     30 C          61.2308   85.9382   10.3309 C.3     1  UNL1        0.1099
     31 N          61.3663   87.4149   10.1051 N.pl3   1  UNL1       -0.3045
     32 C          62.1915   88.2444   11.0437 C.3     1  UNL1        0.1099
     33 C          62.8810   87.5973   12.2081 C.3     1  UNL1        0.1168
     34 S          63.4349   85.4735   13.5983 S.O2    1  UNL1        0.0422
     35 O          63.9252   86.8159   14.0540 O.2     1  UNL1       -0.1573
     36 O          62.9446   84.1312   13.1426 O.2     1  UNL1       -0.1573
     37 C          64.6006   83.4079   14.6585 C.3     1  UNL1        0.0270
     38 C          64.1244   84.8264   14.7627 C.3     1  UNL1        0.1459
     39 C          64.3377   85.5978   16.0313 C.3     1  UNL1        0.0270
@<TRIPOS>BOND
     1    37    38    1
     2    38    39    1
     3    38    34    1
     4    34    35    2
     5    34    36    2
     6    34    28    1
     7    28    29    1
     8    29    30    1
     9    30    31    1
    10    31    22    1
    11    22    23   ar
    12    23    24   ar
    13    24    25   ar
    14    25    21    1
    15    21     1    1
    16     2     1    1
    17     2     3    1
    18     3     4    1
    19     4     5    1
    20     5    15    1
    21    15    16    1
    22    16    17   ar
    23    17    18   ar
    24    18    19   ar
    25    19    20   ar
    26     5     7    1
    27     7     8   ar
    28     8     9   ar
    29     9    10   ar
    30    10    11    1
    31    10    12   ar
    32    12    13   ar
    33    13    14    1
    34     5     6    1
    35    25    26   ar
    36    26    27   ar
    37    31    32    1
    38    32    33    1
    39    33    28    1
    40    27    22   ar
    41     6     2    1
    42    20    16   ar
    43    13     7   ar
@<TRIPOS>MOLECULE
*****
 39 43 0 0 0
SMALL
GASTEIGER

@<TRIPOS>ATOM
      1 C          59.0584   88.9670    6.8230 C.3     1  UNL1        0.2374
      2 C          59.8582   88.6338    8.0474 C.3     1  UNL1        0.1909
      3 C          59.7099   89.2702    9.3976 C.3     1  UNL1        0.1783
      4 O          60.7068   88.6354   10.3213 O.3     1  UNL1       -0.3267
      5 C          61.4713   87.6066    9.5420 C.3     1  UNL1        0.2296
      6 O          60.9468   87.6056    8.1367 O.3     1  UNL1       -0.3255
      7 C          62.1868   87.3828   10.8412 C.ar    1  UNL1        0.0409
      8 C          62.2428   86.0084   11.4394 C.ar    1  UNL1        0.0022
      9 C          62.9583   85.7845   12.7386 C.ar    1  UNL1        0.0113
     10 C          63.6178   86.9351   13.4396 C.ar    1  UNL1        0.0585
     11 CL         64.3334   86.7112   14.7388 Cl      1  UNL1       -0.0822
     12 C          63.5618   88.3095   12.8413 C.ar    1  UNL1        0.0226
     13 C          62.8463   88.5333   11.5422 C.ar    1  UNL1        0.0591
     14 CL         62.7902   89.9077   10.9439 Cl      1  UNL1       -0.0824
     15 C          62.3853   86.5310    9.0343 C.3     1  UNL1        0.1682
     16 N          61.9597   85.6657    7.8854 N.ar    1  UNL1       -0.3025
     17 C          62.8727   84.9268    6.9526 C.ar    1  UNL1        0.0982
     18 C          62.0236   84.1917    5.9583 C.ar    1  UNL1        0.1193
     19 N          60.5857   84.4763    6.2766 N.ar    1  UNL1       -0.2223
     20 C          60.5462   85.3873    7.4676 C.ar    1  UNL1        0.1788
     21 O          58.7909   90.3998    6.4688 O.3     1  UNL1       -0.4727
     22 C          61.0224   92.3321    3.0722 C.ar    1  UNL1        0.0481
     23 C          61.7338   91.3894    3.9969 C.ar    1  UNL1        0.0176
     24 C          60.9900   90.7453    5.1291 C.ar    1  UNL1        0.0382
     25 C          59.5347   91.0439    5.3366 C.ar    1  UNL1        0.1388
     26 C          58.8233   91.9865    4.4119 C.ar    1  UNL1        0.0382
     27 C          59.5671   92.6306    3.2797 C.ar    1  UNL1        0.0176
     28 N          63.2538   94.2644   -0.3244 N.3     1  UNL1       -0.1560
     29 C          61.8296   93.8326   -0.5120 C.3     1  UNL1        0.1168
     30 C          61.0858   93.1885    0.6202 C.3     1  UNL1        0.1099
     31 N          61.7662   92.9762    1.9400 N.pl3   1  UNL1       -0.3045
     32 C          63.1903   93.4080    2.1276 C.3     1  UNL1        0.1099
     33 C          63.9341   94.0522    0.9954 C.3     1  UNL1        0.1168
     34 S          63.9976   94.9085   -1.4566 S.O2    1  UNL1        0.0422
     35 O          64.1035   96.1781   -0.6648 O.2     1  UNL1       -0.1573
     36 O          63.8916   93.6390   -2.2484 O.2     1  UNL1       -0.1573
     37 C          64.4730   95.1259   -4.0015 C.3     1  UNL1        0.0270
     38 C          64.7414   95.5526   -2.5888 C.3     1  UNL1        0.1459
     39 C          65.7536   96.6234   -2.3083 C.3     1  UNL1        0.0270
@<TRIPOS>BOND
     1    37    38    1
     2    38    39    1
     3    38    34    1
     4    34    35    2
     5    34    36    2
     6    34    28    1
     7    28    29    1
     8    29    30    1
     9    30    31    1
    10    31    22    1
    11    22    23   ar
    12    23    24   ar
    13    24    25   ar
    14    25    21    1
    15    21     1    1
    16     2     1    1
    17     2     3    1
    18     3     4    1
    19     4     5    1
    20     5    15    1
    21    15    16    1
    22    16    17   ar
    23    17    18   ar
    24    18    19   ar
    25    19    20   ar
    26     5     7    1
    27     7     8   ar
    28     8     9   ar
    29     9    10   ar
    30    10    11    1
    31    10    12   ar
    32    12    13   ar
    33    13    14    1
    34     5     6    1
    35    25    26   ar
    36    26    27   ar
    37    31    32    1
    38    32    33    1
    39    33    28    1
    40    27    22   ar
    41     6     2    1
    42    20    16   ar
    43    13     7   ar
@<TRIPOS>MOLECULE
*****
 39 43 0 0 0
SMALL
GASTEIGER

@<TRIPOS>ATOM
      1 C          59.0446   88.9172    6.7595 C.3     1  UNL1        0.2374
      2 C          59.8431   88.6141    7.9926 C.3     1  UNL1        0.1909
      3 C          59.7012   89.2913    9.3235 C.3     1  UNL1        0.1783
      4 O          60.6940   88.6763   10.2648 O.3     1  UNL1       -0.3267
      5 C          61.4496   87.6190    9.5157 C.3     1  UNL1        0.2296
      6 O          60.9237   87.5805    8.1114 O.3     1  UNL1       -0.3255
      7 C          62.1647   87.4281   10.8203 C.ar    1  UNL1        0.0409
      8 C          62.2290   86.0673   11.4482 C.ar    1  UNL1        0.0022
      9 C          62.9442   85.8764   12.7529 C.ar    1  UNL1        0.0113
     10 C          63.5949   87.0462   13.4297 C.ar    1  UNL1        0.0585
     11 CL         64.3100   86.8553   14.7344 Cl      1  UNL1       -0.0822
     12 C          63.5305   88.4070   12.8018 C.ar    1  UNL1        0.0226
     13 C          62.8154   88.5979   11.4972 C.ar    1  UNL1        0.0591
     14 CL         62.7510   89.9587   10.8693 Cl      1  UNL1       -0.0824
     15 C          62.3547   86.5218    9.0392 C.3     1  UNL1        0.1682
     16 N          61.9439   85.6598    7.8824 N.ar    1  UNL1       -0.3025
     17 C          62.8689   84.9251    6.9581 C.ar    1  UNL1        0.0982
     18 C          62.0326   84.1925    5.9513 C.ar    1  UNL1        0.1193
     19 N          60.5907   84.4745    6.2532 N.ar    1  UNL1       -0.2223
     20 C          60.5358   85.3813    7.4468 C.ar    1  UNL1        0.1788
     21 O          58.7301   90.3392    6.4004 O.3     1  UNL1       -0.4727
     22 C          61.0177   92.3878    3.1110 C.ar    1  UNL1        0.0481
     23 C          61.7200   91.4344    4.0317 C.ar    1  UNL1        0.0176
     24 C          60.9575   90.7515    5.1282 C.ar    1  UNL1        0.0382
     25 C          59.4926   91.0220    5.3039 C.ar    1  UNL1        0.1388
     26 C          58.7903   91.9754    4.3832 C.ar    1  UNL1        0.0382
     27 C          59.5528   92.6582    3.2867 C.ar    1  UNL1        0.0176
     28 N          63.3053   94.4364   -0.1784 N.3     1  UNL1       -0.1560
     29 C          64.0426   93.7491    0.9323 C.3     1  UNL1        0.1168
     30 C          63.2801   93.0662    2.0288 C.3     1  UNL1        0.1099
     31 N          61.7802   93.0706    2.0145 N.pl3   1  UNL1       -0.3045
     32 C          61.0428   93.7579    0.9037 C.3     1  UNL1        0.1099
     33 C          61.8054   94.4408   -0.1927 C.3     1  UNL1        0.1168
     34 S          64.0678   95.1192   -1.2749 S.O2    1  UNL1        0.0422
     35 O          64.4165   96.2364   -0.3367 O.2     1  UNL1       -0.1573
     36 O          63.7191   94.0020   -2.2132 O.2     1  UNL1       -0.1573
     37 C          65.8941   96.8041   -2.0335 C.3     1  UNL1        0.0270
     38 C          64.8303   95.8021   -2.3714 C.3     1  UNL1        0.1459
     39 C          64.5291   95.4829   -3.8057 C.3     1  UNL1        0.0270
@<TRIPOS>BOND
     1    37    38    1
     2    38    39    1
     3    38    34    1
     4    34    35    2
     5    34    36    2
     6    34    28    1
     7    28    29    1
     8    29    30    1
     9    30    31    1
    10    31    22    1
    11    22    23   ar
    12    23    24   ar
    13    24    25   ar
    14    25    21    1
    15    21     1    1
    16     2     1    1
    17     2     3    1
    18     3     4    1
    19     4     5    1
    20     5    15    1
    21    15    16    1
    22    16    17   ar
    23    17    18   ar
    24    18    19   ar
    25    19    20   ar
    26     5     7    1
    27     7     8   ar
    28     8     9   ar
    29     9    10   ar
    30    10    11    1
    31    10    12   ar
    32    12    13   ar
    33    13    14    1
    34     5     6    1
    35    25    26   ar
    36    26    27   ar
    37    31    32    1
    38    32    33    1
    39    33    28    1
    40    27    22   ar
    41     6     2    1
    42    20    16   ar
    43    13     7   ar
@<TRIPOS>MOLECULE
*****
 39 43 0 0 0
SMALL
GASTEIGER

@<TRIPOS>ATOM
      1 C          59.0708   88.7763    7.5536 C.3     1  UNL1        0.2374
      2 C          59.9757   89.1850    8.6779 C.3     1  UNL1        0.1909
      3 C          59.7296   90.3046    9.6453 C.3     1  UNL1        0.1783
      4 O          60.8874   90.3574   10.5975 O.3     1  UNL1       -0.3267
      5 C          61.8492   89.2705   10.2185 C.3     1  UNL1        0.2296
      6 O          61.2858   88.5459    9.0321 O.3     1  UNL1       -0.3255
      7 C          62.6486   89.7906   11.3762 C.ar    1  UNL1        0.0409
      8 C          62.6319   89.0614   12.6870 C.ar    1  UNL1        0.0022
      9 C          63.4313   89.5815   13.8448 C.ar    1  UNL1        0.0113
     10 C          64.2474   90.8307   13.6918 C.ar    1  UNL1        0.0585
     11 CL         65.0469   91.3508   14.8496 Cl      1  UNL1       -0.0822
     12 C          64.2641   91.5599   12.3810 C.ar    1  UNL1        0.0226
     13 C          63.4647   91.0398   11.2233 C.ar    1  UNL1        0.0591
     14 CL         63.4813   91.7689    9.9125 Cl      1  UNL1       -0.0824
     15 C          62.9781   88.2922   10.0815 C.3     1  UNL1        0.1682
     16 N          62.7070   86.8188   10.1560 N.ar    1  UNL1       -0.3025
     17 C          62.8055   85.8457    9.0189 C.ar    1  UNL1        0.0982
     18 C          62.4492   84.4853    9.5408 C.ar    1  UNL1        0.1193
     19 N          62.1305   84.6178   11.0006 N.ar    1  UNL1       -0.2223
     20 C          62.2898   86.0600   11.3808 C.ar    1  UNL1        0.1788
     21 O          58.3339   89.8193    6.7669 O.3     1  UNL1       -0.4727
     22 C          60.4854   92.1896    3.6042 C.ar    1  UNL1        0.0481
     23 C          59.0170   92.3978    3.8283 C.ar    1  UNL1        0.0176
     24 C          58.2998   91.6077    4.8826 C.ar    1  UNL1        0.0382
     25 C          59.0511   90.6094    5.7126 C.ar    1  UNL1        0.1388
     26 C          60.5195   90.4013    5.4885 C.ar    1  UNL1        0.0382
     27 C          61.2367   91.1913    4.4342 C.ar    1  UNL1        0.0176
     28 N          62.6370   94.5598    0.4415 N.3     1  UNL1       -0.1560
     29 C          63.3225   93.4050    1.1095 C.3     1  UNL1        0.1168
     30 C          62.6053   92.6149    2.1637 C.3     1  UNL1        0.1099
     31 N          61.2026   92.9797    2.5499 N.pl3   1  UNL1       -0.3045
     32 C          60.5171   94.1345    1.8819 C.3     1  UNL1        0.1099
     33 C          61.2342   94.9246    0.8277 C.3     1  UNL1        0.1168
     34 S          63.3542   95.3499   -0.6128 S.O2    1  UNL1        0.0422
     35 O          62.0379   95.8300   -1.1484 O.2     1  UNL1       -0.1573
     36 O          64.6704   94.8698   -0.0771 O.2     1  UNL1       -0.1573
     37 C          63.3457   96.5656   -2.9088 C.3     1  UNL1        0.0270
     38 C          64.0713   96.1400   -1.6670 C.3     1  UNL1        0.1459
     39 C          65.5142   96.5045   -1.4794 C.3     1  UNL1        0.0270
@<TRIPOS>BOND
     1    37    38    1
     2    38    39    1
     3    38    34    1
     4    34    35    2
     5    34    36    2
     6    34    28    1
     7    28    29    1
     8    29    30    1
     9    30    31    1
    10    31    22    1
    11    22    23   ar
    12    23    24   ar
    13    24    25   ar
    14    25    21    1
    15    21     1    1
    16     2     1    1
    17     2     3    1
    18     3     4    1
    19     4     5    1
    20     5    15    1
    21    15    16    1
    22    16    17   ar
    23    17    18   ar
    24    18    19   ar
    25    19    20   ar
    26     5     7    1
    27     7     8   ar
    28     8     9   ar
    29     9    10   ar
    30    10    11    1
    31    10    12   ar
    32    12    13   ar
    33    13    14    1
    34     5     6    1
    35    25    26   ar
    36    26    27   ar
    37    31    32    1
    38    32    33    1
    39    33    28    1
    40    27    22   ar
    41     6     2    1
    42    20    16   ar
    43    13     7   ar
@<TRIPOS>MOLECULE
*****
 39 43 0 0 0
SMALL
GASTEIGER

@<TRIPOS>ATOM
      1 C          59.7617   88.5466    8.6888 C.3     1  UNL1        0.2374
      2 C          60.5176   87.4604    9.3951 C.3     1  UNL1        0.1909
      3 C          60.3152   87.0263   10.8166 C.3     1  UNL1        0.1783
      4 O          61.2812   85.9152   11.1039 O.3     1  UNL1       -0.3267
      5 C          62.0805   85.6627    9.8600 C.3     1  UNL1        0.2296
      6 O          61.6087   86.6177    8.8039 O.3     1  UNL1       -0.3255
      7 C          62.7487   84.6090   10.6924 C.ar    1  UNL1        0.0409
      8 C          62.8375   83.1991   10.1878 C.ar    1  UNL1        0.0022
      9 C          63.5057   82.1453   11.0202 C.ar    1  UNL1        0.0113
     10 C          64.0851   82.5012   12.3572 C.ar    1  UNL1        0.0585
     11 CL         64.7534   81.4474   13.1897 Cl      1  UNL1       -0.0822
     12 C          63.9963   83.9111   12.8618 C.ar    1  UNL1        0.0226
     13 C          63.3282   84.9648   12.0295 C.ar    1  UNL1        0.0591
     14 CL         63.2394   86.3746   12.5340 Cl      1  UNL1       -0.0824
     15 C          63.0196   85.1900    8.7901 C.3     1  UNL1        0.1682
     16 N          62.4890   84.8170    7.4376 N.ar    1  UNL1       -0.3025
     17 C          63.3113   84.5292    6.2166 C.ar    1  UNL1        0.0982
     18 C          62.3734   84.2006    5.0930 C.ar    1  UNL1        0.1193
     19 N          60.9715   84.2853    5.6197 N.ar    1  UNL1       -0.2223
     20 C          61.0429   84.6662    7.0687 C.ar    1  UNL1        0.1788
     21 O          59.9020   89.9713    9.1367 O.3     1  UNL1       -0.4727
     22 C          63.3597   91.1775   11.7520 C.ar    1  UNL1        0.0481
     23 C          63.4884   91.2471   10.2592 C.ar    1  UNL1        0.0176
     24 C          62.3359   90.8451    9.3874 C.ar    1  UNL1        0.0382
     25 C          61.0546   90.3733   10.0085 C.ar    1  UNL1        0.1388
     26 C          60.9259   90.3037   11.5013 C.ar    1  UNL1        0.0382
     27 C          62.0784   90.7057   12.3730 C.ar    1  UNL1        0.0176
     28 N          66.8174   92.3837   14.3673 N.3     1  UNL1       -0.1560
     29 C          65.9645   91.2093   14.7459 C.3     1  UNL1        0.1168
     30 C          64.8120   90.8072   13.8742 C.3     1  UNL1        0.1099
     31 N          64.5123   91.5795   12.6237 N.pl3   1  UNL1       -0.3045
     32 C          65.3651   92.7539   12.2450 C.3     1  UNL1        0.1099
     33 C          66.5176   93.1560   13.1168 C.3     1  UNL1        0.1168
     34 S          67.9699   92.7857   15.2390 S.O2    1  UNL1        0.0422
     35 O          67.0214   93.0529   16.3699 O.2     1  UNL1       -0.1573
     36 O          68.9185   92.5186   14.1081 O.2     1  UNL1       -0.1573
     37 C          69.4745   94.6374   16.2672 C.3     1  UNL1        0.0270
     38 C          69.1225   93.1878   16.1108 C.3     1  UNL1        0.1459
     39 C          69.9230   92.1402   16.8261 C.3     1  UNL1        0.0270
@<TRIPOS>BOND
     1    37    38    1
     2    38    39    1
     3    38    34    1
     4    34    35    2
     5    34    36    2
     6    34    28    1
     7    28    29    1
     8    29    30    1
     9    30    31    1
    10    31    22    1
    11    22    23   ar
    12    23    24   ar
    13    24    25   ar
    14    25    21    1
    15    21     1    1
    16     2     1    1
    17     2     3    1
    18     3     4    1
    19     4     5    1
    20     5    15    1
    21    15    16    1
    22    16    17   ar
    23    17    18   ar
    24    18    19   ar
    25    19    20   ar
    26     5     7    1
    27     7     8   ar
    28     8     9   ar
    29     9    10   ar
    30    10    11    1
    31    10    12   ar
    32    12    13   ar
    33    13    14    1
    34     5     6    1
    35    25    26   ar
    36    26    27   ar
    37    31    32    1
    38    32    33    1
    39    33    28    1
    40    27    22   ar
    41     6     2    1
    42    20    16   ar
    43    13     7   ar
