@<TRIPOS>MOLECULE
*****
 32 35 0 0 0
SMALL
GASTEIGER

@<TRIPOS>ATOM
      1 C          62.1352   87.6087   11.1728 C.ar    1  UNL1        0.0888
      2 C          62.7684   88.8274   11.7758 C.ar    1  UNL1        0.0538
      3 C          63.6207   88.7002   13.0036 C.ar    1  UNL1        0.1388
      4 N          63.8397   87.3542   13.6284 N.ar    1  UNL1       -0.1948
      5 C          63.2064   86.1354   13.0253 C.ar    1  UNL1        0.2539
      6 N          62.3542   86.2627   11.7975 N.ar    1  UNL1       -0.2098
      7 N          63.4255   84.7894   13.6500 N.ar    1  UNL1       -0.2008
      8 N          63.4008   83.4710   12.9351 N.ar    1  UNL1       -0.1673
      9 C          63.6677   82.3922   13.9426 C.ar    1  UNL1        0.0806
     10 C          63.7335   80.9202   13.6617 C.3     1  UNL1        0.0540
     11 C          63.8572   83.0439   15.2802 C.ar    1  UNL1        0.0313
     12 C          63.7075   84.5255   15.0994 C.ar    1  UNL1        0.0651
     13 C          63.8201   85.5612   16.1786 C.3     1  UNL1        0.0523
     14 C          60.1976   86.6696    7.8390 C.ar    1  UNL1        0.1579
     15 C          59.5785   87.9903    7.4894 C.ar    1  UNL1        0.1356
     16 N          59.8116   89.1839    8.3675 N.ar    1  UNL1       -0.2391
     17 C          60.6639   89.0567    9.5953 C.ar    1  UNL1        0.1006
     18 C          61.2829   87.7360    9.9449 C.ar    1  UNL1        0.0400
     19 C          61.0498   86.5424    9.0668 C.ar    1  UNL1        0.0416
     20 C          61.1260   84.6486    6.4960 C.3     1  UNL1        0.2525
     21 O          59.9645   85.4760    6.9609 O.3     1  UNL1       -0.4699
     22 N          64.2539   89.9189   13.6067 N.am    1  UNL1       -0.2681
     23 C          63.8184   90.3990   14.9594 C.2     1  UNL1        0.2435
     24 O          62.7496   89.6603   15.7091 O.2     1  UNL1       -0.2732
     25 H          64.9554   90.4038   13.1146 H       1  UNL1        0.1563
     26 C          64.4516   91.6177   15.5624 C.3     1  UNL1        0.1589
     27 N          65.8553   91.9949   15.1917 N.3     1  UNL1       -0.2607
     28 C          66.7161   92.7364   16.1710 C.3     1  UNL1        0.1050
     29 C          68.1197   93.1136   15.8004 C.3     1  UNL1        0.1595
     30 O          68.6626   92.7493   14.4504 O.3     1  UNL1       -0.3508
     31 C          67.8018   92.0078   13.4710 C.3     1  UNL1        0.1595
     32 C          66.3981   91.6306   13.8417 C.3     1  UNL1        0.1050
@<TRIPOS>BOND
     1    20    21    1
     2    21    14    1
     3    14    15   ar
     4    15    16   ar
     5    16    17   ar
     6    17    18   ar
     7    18     1    1
     8     1     2   ar
     9     2     3   ar
    10     3    22    1
    11    22    23   am
    12    23    24    2
    13    23    26    1
    14    26    27    1
    15    27    28    1
    16    28    29    1
    17    29    30    1
    18    30    31    1
    19    31    32    1
    20     3     4   ar
    21     4     5   ar
    22     5     7    1
    23     7     8   ar
    24     8     9   ar
    25     9    10    1
    26     9    11   ar
    27    11    12   ar
    28    12    13    1
    29     5     6   ar
    30    18    19   ar
    31    19    14   ar
    32     6     1   ar
    33    32    27    1
    34    12     7   ar
    35    22    25    1
@<TRIPOS>MOLECULE
*****
 32 35 0 0 0
SMALL
GASTEIGER

@<TRIPOS>ATOM
      1 C          63.2182   85.5637   12.9624 C.ar    1  UNL1        0.0888
      2 C          63.9229   86.6332   13.7429 C.ar    1  UNL1        0.0538
      3 C          63.7625   88.0735   13.3556 C.ar    1  UNL1        0.1388
      4 N          62.8973   88.4441   12.1877 N.ar    1  UNL1       -0.1948
      5 C          62.1926   87.3745   11.4071 C.ar    1  UNL1        0.2539
      6 N          62.3530   85.9343   11.7944 N.ar    1  UNL1       -0.2098
      7 N          61.3274   87.7451   10.2391 N.ar    1  UNL1       -0.2008
      8 N          60.4730   86.8051    9.4413 N.ar    1  UNL1       -0.1673
      9 C          59.7823   87.5999    8.3731 C.ar    1  UNL1        0.0806
     10 C          58.8311   87.0585    7.3474 C.3     1  UNL1        0.0540
     11 C          60.2097   89.0311    8.5106 C.ar    1  UNL1        0.0313
     12 C          61.1647   89.1208    9.6639 C.ar    1  UNL1        0.0651
     13 C          61.8386   90.3675   10.1555 C.3     1  UNL1        0.0523
     14 C          63.1894   81.6003   12.7597 C.ar    1  UNL1        0.1579
     15 C          63.6994   81.2430   14.1243 C.ar    1  UNL1        0.1356
     16 N          64.0490   82.3258   15.1016 N.ar    1  UNL1       -0.2391
     17 C          63.8886   83.7661   14.7143 C.ar    1  UNL1        0.1006
     18 C          63.3786   84.1234   13.3497 C.ar    1  UNL1        0.0400
     19 C          63.0290   83.0405   12.3724 C.ar    1  UNL1        0.0416
     20 C          63.1446   80.6958   10.3245 C.3     1  UNL1        0.2525
     21 O          62.8398   80.5174   11.7823 O.3     1  UNL1       -0.4699
     22 N          64.4673   89.1430   14.1362 N.am    1  UNL1       -0.2681
     23 C          63.6963   90.0072   15.0895 C.2     1  UNL1        0.2435
     24 O          62.2205   89.8018   15.2622 O.2     1  UNL1       -0.2732
     25 H          65.4359   89.2778   14.0229 H       1  UNL1        0.1563
     26 C          64.4010   91.0767   15.8701 C.3     1  UNL1        0.1589
     27 N          65.4299   91.9390   15.2009 N.3     1  UNL1       -0.2607
     28 C          66.5083   92.5894   16.0158 C.3     1  UNL1        0.1050
     29 C          67.5372   93.4516   15.3466 C.3     1  UNL1        0.1595
     30 O          67.4878   93.6635   13.8625 O.3     1  UNL1       -0.3508
     31 C          66.4094   93.0131   13.0475 C.3     1  UNL1        0.1595
     32 C          65.3805   92.1508   13.7167 C.3     1  UNL1        0.1050
@<TRIPOS>BOND
     1    20    21    1
     2    21    14    1
     3    14    15   ar
     4    15    16   ar
     5    16    17   ar
     6    17    18   ar
     7    18     1    1
     8     1     2   ar
     9     2     3   ar
    10     3    22    1
    11    22    23   am
    12    23    24    2
    13    23    26    1
    14    26    27    1
    15    27    28    1
    16    28    29    1
    17    29    30    1
    18    30    31    1
    19    31    32    1
    20     3     4   ar
    21     4     5   ar
    22     5     7    1
    23     7     8   ar
    24     8     9   ar
    25     9    10    1
    26     9    11   ar
    27    11    12   ar
    28    12    13    1
    29     5     6   ar
    30    18    19   ar
    31    19    14   ar
    32     6     1   ar
    33    32    27    1
    34    12     7   ar
    35    22    25    1
@<TRIPOS>MOLECULE
*****
 32 35 0 0 0
SMALL
GASTEIGER

@<TRIPOS>ATOM
      1 C          63.0690   89.7524   11.6957 C.ar    1  UNL1        0.0888
      2 C          62.0329   90.1554   10.6887 C.ar    1  UNL1        0.0538
      3 C          61.1542   89.1153   10.0593 C.ar    1  UNL1        0.1388
      4 N          61.3116   87.6722   10.4369 N.ar    1  UNL1       -0.1948
      5 C          62.3478   87.2692   11.4440 C.ar    1  UNL1        0.2539
      6 N          63.2264   88.3093   12.0733 N.ar    1  UNL1       -0.2098
      7 N          62.5052   85.8261   11.8217 N.ar    1  UNL1       -0.2008
      8 N          62.3722   85.2566   13.2030 N.ar    1  UNL1       -0.1673
      9 C          62.6081   83.7776   13.1194 C.ar    1  UNL1        0.0806
     10 C          62.5716   82.8127   14.2672 C.3     1  UNL1        0.0540
     11 C          62.8869   83.4330   11.6863 C.ar    1  UNL1        0.0313
     12 C          62.8233   84.6990   10.8844 C.ar    1  UNL1        0.0651
     13 C          63.0398   84.8172    9.4048 C.3     1  UNL1        0.0523
     14 C          65.4914   92.8700   12.0990 C.ar    1  UNL1        0.1579
     15 C          65.7050   92.8728   13.5837 C.ar    1  UNL1        0.1356
     16 N          65.0400   91.8354   14.4390 N.ar    1  UNL1       -0.2391
     17 C          64.1613   90.7953   13.8097 C.ar    1  UNL1        0.1006
     18 C          63.9477   90.7926   12.3250 C.ar    1  UNL1        0.0400
     19 C          64.6127   91.8299   11.4697 C.ar    1  UNL1        0.0416
     20 C          66.8069   93.5097    9.9519 C.3     1  UNL1        0.2525
     21 O          66.1564   93.9074   11.2436 O.3     1  UNL1       -0.4699
     22 N          60.1181   89.5183    9.0523 N.am    1  UNL1       -0.2681
     23 C          59.7510   88.5830    7.9385 C.2     1  UNL1        0.2435
     24 O          60.4199   87.2447    7.8318 O.2     1  UNL1       -0.2732
     25 H          59.6790   90.3967    9.1223 H       1  UNL1        0.1563
     26 C          58.7149   88.9860    6.9316 C.3     1  UNL1        0.1589
     27 N          58.9966   90.1038    5.9718 N.3     1  UNL1       -0.2607
     28 C          57.8706   90.9469    5.4510 C.3     1  UNL1        0.1050
     29 C          58.1524   92.0647    4.4913 C.3     1  UNL1        0.1595
     30 O          59.5601   92.3395    4.0524 O.3     1  UNL1       -0.3508
     31 C          60.6862   91.4963    4.5732 C.3     1  UNL1        0.1595
     32 C          60.4045   90.3785    5.5329 C.3     1  UNL1        0.1050
@<TRIPOS>BOND
     1    20    21    1
     2    21    14    1
     3    14    15   ar
     4    15    16   ar
     5    16    17   ar
     6    17    18   ar
     7    18     1    1
     8     1     2   ar
     9     2     3   ar
    10     3    22    1
    11    22    23   am
    12    23    24    2
    13    23    26    1
    14    26    27    1
    15    27    28    1
    16    28    29    1
    17    29    30    1
    18    30    31    1
    19    31    32    1
    20     3     4   ar
    21     4     5   ar
    22     5     7    1
    23     7     8   ar
    24     8     9   ar
    25     9    10    1
    26     9    11   ar
    27    11    12   ar
    28    12    13    1
    29     5     6   ar
    30    18    19   ar
    31    19    14   ar
    32     6     1   ar
    33    32    27    1
    34    12     7   ar
    35    22    25    1
@<TRIPOS>MOLECULE
*****
 32 35 0 0 0
SMALL
GASTEIGER

@<TRIPOS>ATOM
      1 C          63.9715   89.2313   13.9792 C.ar    1  UNL1        0.0888
      2 C          64.3380   87.8205   14.3330 C.ar    1  UNL1        0.0538
      3 C          63.8405   86.6828   13.4914 C.ar    1  UNL1        0.1388
      4 N          62.9765   86.9560   12.2960 N.ar    1  UNL1       -0.1948
      5 C          62.6100   88.3669   11.9423 C.ar    1  UNL1        0.2539
      6 N          63.1075   89.5046   12.7838 N.ar    1  UNL1       -0.2098
      7 N          61.7460   88.6401   10.7470 N.ar    1  UNL1       -0.2008
      8 N          60.7253   87.7075   10.1651 N.ar    1  UNL1       -0.1673
      9 C          60.0994   88.3849    8.9821 C.ar    1  UNL1        0.0806
     10 C          59.0279   87.8117    8.1029 C.3     1  UNL1        0.0540
     11 C          60.7333   89.7362    8.8328 C.ar    1  UNL1        0.0313
     12 C          61.7508   89.8939    9.9236 C.ar    1  UNL1        0.0651
     13 C          62.6206   91.0947   10.1509 C.3     1  UNL1        0.0523
     14 C          66.2491   92.1982   15.3059 C.ar    1  UNL1        0.1579
     15 C          65.4641   92.6444   16.5037 C.ar    1  UNL1        0.1356
     16 N          64.1816   91.9528   16.8600 N.ar    1  UNL1       -0.2391
     17 C          63.6841   90.8152   16.0185 C.ar    1  UNL1        0.1006
     18 C          64.4691   90.3691   14.8207 C.ar    1  UNL1        0.0400
     19 C          65.7516   91.0606   14.4644 C.ar    1  UNL1        0.0416
     20 C          68.7905   92.5679   15.6989 C.3     1  UNL1        0.2525
     21 O          67.5316   92.8898   14.9496 O.3     1  UNL1       -0.4699
     22 N          64.2070   85.2720   13.8452 N.am    1  UNL1       -0.2681
     23 C          63.1903   84.3694   14.4790 C.2     1  UNL1        0.2435
     24 O          61.8072   84.8777   14.7590 O.2     1  UNL1       -0.2732
     25 H          65.1148   84.9384   13.6614 H       1  UNL1        0.1563
     26 C          63.5568   82.9586   14.8328 C.3     1  UNL1        0.1589
     27 N          63.2431   81.8413   13.8823 N.3     1  UNL1       -0.2607
     28 C          63.6698   81.9353   12.4474 C.3     1  UNL1        0.1050
     29 C          63.3561   80.8180   11.4970 C.3     1  UNL1        0.1595
     30 O          62.6156   79.6069   11.9814 O.3     1  UNL1       -0.3508
     31 C          62.1889   79.5129   13.4164 C.3     1  UNL1        0.1595
     32 C          62.5026   80.6301   14.3669 C.3     1  UNL1        0.1050
@<TRIPOS>BOND
     1    20    21    1
     2    21    14    1
     3    14    15   ar
     4    15    16   ar
     5    16    17   ar
     6    17    18   ar
     7    18     1    1
     8     1     2   ar
     9     2     3   ar
    10     3    22    1
    11    22    23   am
    12    23    24    2
    13    23    26    1
    14    26    27    1
    15    27    28    1
    16    28    29    1
    17    29    30    1
    18    30    31    1
    19    31    32    1
    20     3     4   ar
    21     4     5   ar
    22     5     7    1
    23     7     8   ar
    24     8     9   ar
    25     9    10    1
    26     9    11   ar
    27    11    12   ar
    28    12    13    1
    29     5     6   ar
    30    18    19   ar
    31    19    14   ar
    32     6     1   ar
    33    32    27    1
    34    12     7   ar
    35    22    25    1
@<TRIPOS>MOLECULE
*****
 32 35 0 0 0
SMALL
GASTEIGER

@<TRIPOS>ATOM
      1 C          63.1234   89.8066   11.4864 C.ar    1  UNL1        0.0888
      2 C          62.0522   90.1900   10.5090 C.ar    1  UNL1        0.0538
      3 C          61.1442   89.1396    9.9411 C.ar    1  UNL1        0.1388
      4 N          61.3076   87.7059   10.3507 N.ar    1  UNL1       -0.1948
      5 C          62.3790   87.3225   11.3281 C.ar    1  UNL1        0.2539
      6 N          63.2868   88.3728   11.8960 N.ar    1  UNL1       -0.2098
      7 N          62.5424   85.8888   11.7377 N.ar    1  UNL1       -0.2008
      8 N          62.4309   85.3525   13.1341 N.ar    1  UNL1       -0.1673
      9 C          62.6656   83.8719   13.0822 C.ar    1  UNL1        0.0806
     10 C          62.6470   82.9347   14.2532 C.3     1  UNL1        0.0540
     11 C          62.9221   83.4930   11.6537 C.ar    1  UNL1        0.0313
     12 C          62.8459   84.7396   10.8227 C.ar    1  UNL1        0.0651
     13 C          63.0393   84.8223    9.3375 C.3     1  UNL1        0.0523
     14 C          65.3325   91.8563   14.0689 C.ar    1  UNL1        0.1579
     15 C          65.8472   92.9575   13.1901 C.ar    1  UNL1        0.1356
     16 N          65.4540   93.0085   11.7434 N.ar    1  UNL1       -0.2391
     17 C          64.5461   91.9582   11.1755 C.ar    1  UNL1        0.1006
     18 C          64.0314   90.8569   12.0543 C.ar    1  UNL1        0.0400
     19 C          64.4246   90.8060   13.5010 C.ar    1  UNL1        0.0416
     20 C          66.7833   92.7315   16.0383 C.3     1  UNL1        0.2525
     21 O          65.7256   91.8053   15.5155 O.3     1  UNL1       -0.4699
     22 N          60.0729   89.5230    8.9637 N.am    1  UNL1       -0.2681
     23 C          59.7067   88.5897    7.8480 C.2     1  UNL1        0.2435
     24 O          60.4118   87.2730    7.7097 O.2     1  UNL1       -0.2732
     25 H          59.6102   90.3872    9.0545 H       1  UNL1        0.1563
     26 C          58.6354   88.9730    6.8706 C.3     1  UNL1        0.1589
     27 N          58.8513   90.1254    5.9350 N.3     1  UNL1       -0.2607
     28 C          57.6783   90.9151    5.4346 C.3     1  UNL1        0.1050
     29 C          57.8942   92.0675    4.4990 C.3     1  UNL1        0.1595
     30 O          59.2831   92.4303    4.0638 O.3     1  UNL1       -0.3508
     31 C          60.4561   91.6406    4.5643 C.3     1  UNL1        0.1595
     32 C          60.2403   90.4882    5.4999 C.3     1  UNL1        0.1050
@<TRIPOS>BOND
     1    20    21    1
     2    21    14    1
     3    14    15   ar
     4    15    16   ar
     5    16    17   ar
     6    17    18   ar
     7    18     1    1
     8     1     2   ar
     9     2     3   ar
    10     3    22    1
    11    22    23   am
    12    23    24    2
    13    23    26    1
    14    26    27    1
    15    27    28    1
    16    28    29    1
    17    29    30    1
    18    30    31    1
    19    31    32    1
    20     3     4   ar
    21     4     5   ar
    22     5     7    1
    23     7     8   ar
    24     8     9   ar
    25     9    10    1
    26     9    11   ar
    27    11    12   ar
    28    12    13    1
    29     5     6   ar
    30    18    19   ar
    31    19    14   ar
    32     6     1   ar
    33    32    27    1
    34    12     7   ar
    35    22    25    1
@<TRIPOS>MOLECULE
*****
 32 35 0 0 0
SMALL
GASTEIGER

@<TRIPOS>ATOM
      1 C          62.2046   88.1084   11.1194 C.ar    1  UNL1        0.0888
      2 C          62.3522   86.8912   11.9834 C.ar    1  UNL1        0.0538
      3 C          63.2426   86.9313   13.1899 C.ar    1  UNL1        0.1388
      4 N          63.9854   88.1887   13.5324 N.ar    1  UNL1       -0.1948
      5 C          63.8378   89.4059   12.6683 C.ar    1  UNL1        0.2539
      6 N          62.9474   89.3658   11.4618 N.ar    1  UNL1       -0.2098
      7 N          64.5806   90.6633   13.0108 N.ar    1  UNL1       -0.2008
      8 N          65.2132   90.9812   14.3331 N.ar    1  UNL1       -0.1673
      9 C          65.8448   92.3379   14.2306 C.ar    1  UNL1        0.0806
     10 C          66.5882   93.0492   15.3222 C.3     1  UNL1        0.0540
     11 C          65.6024   92.8585   12.8449 C.ar    1  UNL1        0.0313
     12 C          64.8211   91.8235   12.0910 C.ar    1  UNL1        0.0651
     13 C          64.3611   91.9301   10.6673 C.3     1  UNL1        0.0523
     14 C          60.2576   86.7500    7.9391 C.ar    1  UNL1        0.1579
     15 C          59.5335   87.9880    7.4999 C.ar    1  UNL1        0.1356
     16 N          59.6997   89.2662    8.2672 N.ar    1  UNL1       -0.2391
     17 C          60.5901   89.3063    9.4737 C.ar    1  UNL1        0.1006
     18 C          61.3142   88.0683    9.9129 C.ar    1  UNL1        0.0400
     19 C          61.1480   86.7902    9.1456 C.ar    1  UNL1        0.0416
     20 C          61.2974   84.7466    6.6525 C.3     1  UNL1        0.2525
     21 O          60.0914   85.4719    7.1718 O.3     1  UNL1       -0.4699
     22 N          63.3902   85.7141   14.0539 N.am    1  UNL1       -0.2681
     23 C          63.8363   84.4154   13.4502 C.2     1  UNL1        0.2435
     24 O          64.1347   84.3339   11.9825 O.2     1  UNL1       -0.2732
     25 H          63.1943   85.7675   15.0172 H       1  UNL1        0.1563
     26 C          63.9839   83.1982   14.3142 C.3     1  UNL1        0.1589
     27 N          63.1042   82.0049   14.0854 N.3     1  UNL1       -0.2607
     28 C          61.6460   82.0709   14.4309 C.3     1  UNL1        0.1050
     29 C          60.7663   80.8776   14.2021 C.3     1  UNL1        0.1595
     30 O          61.3448   79.6184   13.6280 O.3     1  UNL1       -0.3508
     31 C          62.8031   79.5524   13.2825 C.3     1  UNL1        0.1595
     32 C          63.6827   80.7457   13.5113 C.3     1  UNL1        0.1050
@<TRIPOS>BOND
     1    20    21    1
     2    21    14    1
     3    14    15   ar
     4    15    16   ar
     5    16    17   ar
     6    17    18   ar
     7    18     1    1
     8     1     2   ar
     9     2     3   ar
    10     3    22    1
    11    22    23   am
    12    23    24    2
    13    23    26    1
    14    26    27    1
    15    27    28    1
    16    28    29    1
    17    29    30    1
    18    30    31    1
    19    31    32    1
    20     3     4   ar
    21     4     5   ar
    22     5     7    1
    23     7     8   ar
    24     8     9   ar
    25     9    10    1
    26     9    11   ar
    27    11    12   ar
    28    12    13    1
    29     5     6   ar
    30    18    19   ar
    31    19    14   ar
    32     6     1   ar
    33    32    27    1
    34    12     7   ar
    35    22    25    1
@<TRIPOS>MOLECULE
*****
 32 35 0 0 0
SMALL
GASTEIGER

@<TRIPOS>ATOM
      1 C          61.4697   87.8841   10.4014 C.ar    1  UNL1        0.0888
      2 C          61.6879   86.5578   11.0672 C.ar    1  UNL1        0.0538
      3 C          62.6426   86.4445   12.2186 C.ar    1  UNL1        0.1388
      4 N          63.3792   87.6577   12.7042 N.ar    1  UNL1       -0.1948
      5 C          63.1610   88.9840   12.0383 C.ar    1  UNL1        0.2539
      6 N          62.2063   89.0972   10.8870 N.ar    1  UNL1       -0.2098
      7 N          63.8976   90.1971   12.5239 N.ar    1  UNL1       -0.2008
      8 N          64.4669   91.2860   11.6636 N.ar    1  UNL1       -0.1673
      9 C          65.1154   92.2962   12.5630 C.ar    1  UNL1        0.0806
     10 C          65.8103   93.5507   12.1233 C.3     1  UNL1        0.0540
     11 C          64.9469   91.8317   13.9792 C.ar    1  UNL1        0.0313
     12 C          64.1943   90.5344   13.9551 C.ar    1  UNL1        0.0651
     13 C          63.8064   89.7177   15.1520 C.3     1  UNL1        0.0523
     14 C          59.5523   89.3472    7.2498 C.ar    1  UNL1        0.1579
     15 C          58.6056   88.2238    6.9473 C.ar    1  UNL1        0.1356
     16 N          58.6136   86.9871    7.7961 N.ar    1  UNL1       -0.2391
     17 C          59.5683   86.8738    8.9474 C.ar    1  UNL1        0.1006
     18 C          60.5150   87.9973    9.2500 C.ar    1  UNL1        0.0400
     19 C          60.5070   89.2340    8.4012 C.ar    1  UNL1        0.0416
     20 C          58.3822   90.8642    5.4949 C.3     1  UNL1        0.2525
     21 O          59.5443   90.5840    6.4010 O.3     1  UNL1       -0.4699
     22 N          62.8607   85.1183   12.8844 N.am    1  UNL1       -0.2681
     23 C          63.7779   85.0144   14.0668 C.2     1  UNL1        0.2435
     24 O          64.4770   86.2369   14.5834 O.2     1  UNL1       -0.2732
     25 H          62.4019   84.3159   12.5454 H       1  UNL1        0.1563
     26 C          63.9960   83.6881   14.7326 C.3     1  UNL1        0.1589
     27 N          63.2535   82.4766   14.2521 N.3     1  UNL1       -0.2607
     28 C          61.8381   82.2420   14.6896 C.3     1  UNL1        0.1050
     29 C          61.0956   81.0305   14.2091 C.3     1  UNL1        0.1595
     30 O          61.7685   80.0535   13.2912 O.3     1  UNL1       -0.3508
     31 C          63.1840   80.2880   12.8537 C.3     1  UNL1        0.1595
     32 C          63.9266   81.4996   13.3342 C.3     1  UNL1        0.1050
@<TRIPOS>BOND
     1    20    21    1
     2    21    14    1
     3    14    15   ar
     4    15    16   ar
     5    16    17   ar
     6    17    18   ar
     7    18     1    1
     8     1     2   ar
     9     2     3   ar
    10     3    22    1
    11    22    23   am
    12    23    24    2
    13    23    26    1
    14    26    27    1
    15    27    28    1
    16    28    29    1
    17    29    30    1
    18    30    31    1
    19    31    32    1
    20     3     4   ar
    21     4     5   ar
    22     5     7    1
    23     7     8   ar
    24     8     9   ar
    25     9    10    1
    26     9    11   ar
    27    11    12   ar
    28    12    13    1
    29     5     6   ar
    30    18    19   ar
    31    19    14   ar
    32     6     1   ar
    33    32    27    1
    34    12     7   ar
    35    22    25    1
@<TRIPOS>MOLECULE
*****
 32 35 0 0 0
SMALL
GASTEIGER

@<TRIPOS>ATOM
      1 C          62.7871   88.4192   11.5733 C.ar    1  UNL1        0.0888
      2 C          61.9245   88.4802   10.3477 C.ar    1  UNL1        0.0538
      3 C          61.3127   87.2258    9.7979 C.ar    1  UNL1        0.1388
      4 N          61.5635   85.9104   10.4738 N.ar    1  UNL1       -0.1948
      5 C          62.4260   85.8494   11.6995 C.ar    1  UNL1        0.2539
      6 N          63.0378   87.1038   12.2492 N.ar    1  UNL1       -0.2098
      7 N          62.6768   84.5340   12.3754 N.ar    1  UNL1       -0.2008
      8 N          62.3481   83.1802   11.8194 N.ar    1  UNL1       -0.1673
      9 C          62.7684   82.1509   12.8263 C.ar    1  UNL1        0.0806
     10 C          62.6253   80.6649   12.6805 C.3     1  UNL1        0.0540
     11 C          63.3569   82.8686   14.0047 C.ar    1  UNL1        0.0313
     12 C          63.3003   84.3414   13.7260 C.ar    1  UNL1        0.0651
     13 C          63.7826   85.4304   14.6378 C.3     1  UNL1        0.0523
     14 C          64.4943   91.9980   11.7396 C.ar    1  UNL1        0.1579
     15 C          64.6225   92.1823   13.2227 C.ar    1  UNL1        0.1356
     16 N          64.1389   91.1122   14.1560 N.ar    1  UNL1       -0.2391
     17 C          63.5271   89.8579   13.6062 C.ar    1  UNL1        0.1006
     18 C          63.3989   89.6736   12.1232 C.ar    1  UNL1        0.0400
     19 C          63.8825   90.7436   11.1898 C.ar    1  UNL1        0.0416
     20 C          66.0919   93.9811   11.2250 C.3     1  UNL1        0.2525
     21 O          64.9779   93.0680   10.8063 O.3     1  UNL1       -0.4699
     22 N          60.4502   87.2869    8.5722 N.am    1  UNL1       -0.2681
     23 C          59.7856   88.5750    8.1862 C.2     1  UNL1        0.2435
     24 O          59.9835   89.8021    9.0258 O.2     1  UNL1       -0.2732
     25 H          60.3203   86.4815    8.0211 H       1  UNL1        0.1563
     26 C          58.9231   88.6360    6.9605 C.3     1  UNL1        0.1589
     27 N          58.9429   89.8571    6.0895 N.3     1  UNL1       -0.2607
     28 C          60.2461   90.3836    5.5658 C.3     1  UNL1        0.1050
     29 C          60.2660   91.6046    4.6947 C.3     1  UNL1        0.1595
     30 O          58.9826   92.2991    4.3474 O.3     1  UNL1       -0.3508
     31 C          57.6793   91.7726    4.8712 C.3     1  UNL1        0.1595
     32 C          57.6595   90.5516    5.7422 C.3     1  UNL1        0.1050
@<TRIPOS>BOND
     1    20    21    1
     2    21    14    1
     3    14    15   ar
     4    15    16   ar
     5    16    17   ar
     6    17    18   ar
     7    18     1    1
     8     1     2   ar
     9     2     3   ar
    10     3    22    1
    11    22    23   am
    12    23    24    2
    13    23    26    1
    14    26    27    1
    15    27    28    1
    16    28    29    1
    17    29    30    1
    18    30    31    1
    19    31    32    1
    20     3     4   ar
    21     4     5   ar
    22     5     7    1
    23     7     8   ar
    24     8     9   ar
    25     9    10    1
    26     9    11   ar
    27    11    12   ar
    28    12    13    1
    29     5     6   ar
    30    18    19   ar
    31    19    14   ar
    32     6     1   ar
    33    32    27    1
    34    12     7   ar
    35    22    25    1
@<TRIPOS>MOLECULE
*****
 32 35 0 0 0
SMALL
GASTEIGER

@<TRIPOS>ATOM
      1 C          62.2694   86.6562   10.8414 C.ar    1  UNL1        0.0888
      2 C          62.6578   87.7110   11.8346 C.ar    1  UNL1        0.0538
      3 C          62.2168   89.1304   11.6324 C.ar    1  UNL1        0.1388
      4 N          61.3875   89.4950   10.4369 N.ar    1  UNL1       -0.1948
      5 C          60.9991   88.4402    9.4436 C.ar    1  UNL1        0.2539
      6 N          61.4401   87.0209    9.6458 N.ar    1  UNL1       -0.2098
      7 N          60.1698   88.8048    8.2480 N.ar    1  UNL1       -0.2008
      8 N          60.1787   90.1265    7.5387 N.ar    1  UNL1       -0.1673
      9 C          59.2004   90.0503    6.4042 C.ar    1  UNL1        0.0806
     10 C          58.8901   91.1498    5.4322 C.3     1  UNL1        0.0540
     11 C          58.5869   88.6815    6.4123 C.ar    1  UNL1        0.0313
     12 C          59.1860   87.9118    7.5519 C.ar    1  UNL1        0.0651
     13 C          58.8588   86.4973    7.9291 C.3     1  UNL1        0.0523
     14 C          62.9454   83.1501   12.5734 C.ar    1  UNL1        0.1579
     15 C          63.5921   82.3981   11.4481 C.ar    1  UNL1        0.1356
     16 N          63.7980   83.0654   10.1207 N.ar    1  UNL1       -0.2391
     17 C          63.3571   84.4848    9.9184 C.ar    1  UNL1        0.1006
     18 C          62.7103   85.2368   11.0436 C.ar    1  UNL1        0.0400
     19 C          62.5045   84.5694   12.3711 C.ar    1  UNL1        0.0416
     20 C          62.3810   81.0274   13.9611 C.3     1  UNL1        0.2525
     21 O          62.7395   82.4827   13.9008 O.3     1  UNL1       -0.4699
     22 N          62.6052   90.1852   12.6257 N.am    1  UNL1       -0.2681
     23 C          63.4721   89.8295   13.7970 C.2     1  UNL1        0.2435
     24 O          63.9506   88.4191   13.9750 O.2     1  UNL1       -0.2732
     25 H          62.2911   91.1109   12.5088 H       1  UNL1        0.1563
     26 C          63.8605   90.8843   14.7903 C.3     1  UNL1        0.1589
     27 N          65.0735   91.7326   14.5477 N.3     1  UNL1       -0.2607
     28 C          65.4944   92.0558   13.1448 C.3     1  UNL1        0.1050
     29 C          66.7075   92.9041   12.9023 C.3     1  UNL1        0.1595
     30 O          67.4997   93.4292   14.0627 O.3     1  UNL1       -0.3508
     31 C          67.0788   93.1061   15.4658 C.3     1  UNL1        0.1595
     32 C          65.8657   92.2578   15.7083 C.3     1  UNL1        0.1050
@<TRIPOS>BOND
     1    20    21    1
     2    21    14    1
     3    14    15   ar
     4    15    16   ar
     5    16    17   ar
     6    17    18   ar
     7    18     1    1
     8     1     2   ar
     9     2     3   ar
    10     3    22    1
    11    22    23   am
    12    23    24    2
    13    23    26    1
    14    26    27    1
    15    27    28    1
    16    28    29    1
    17    29    30    1
    18    30    31    1
    19    31    32    1
    20     3     4   ar
    21     4     5   ar
    22     5     7    1
    23     7     8   ar
    24     8     9   ar
    25     9    10    1
    26     9    11   ar
    27    11    12   ar
    28    12    13    1
    29     5     6   ar
    30    18    19   ar
    31    19    14   ar
    32     6     1   ar
    33    32    27    1
    34    12     7   ar
    35    22    25    1
