@<TRIPOS>MOLECULE
*****
 26 28 0 0 0
SMALL
GASTEIGER

@<TRIPOS>ATOM
      1 S          62.7073   89.5791   11.5245 S.O2    1  UNL1        0.0129
      2 O          63.0353   89.7722   10.0737 O.2     1  UNL1       -0.1683
      3 O          62.3792   89.3860   12.9754 O.2     1  UNL1       -0.1683
      4 C          63.6854   90.6563   11.8891 C.ar    1  UNL1        0.1066
      5 C          64.0988   91.6718   10.8654 C.ar    1  UNL1        0.0199
      6 C          65.0769   92.7490   11.2300 C.ar    1  UNL1        0.0210
      7 C          65.6416   92.8107   12.6182 C.ar    1  UNL1        0.0893
      8 N          66.6166   93.7500   13.2643 N.ar    1  UNL1       -0.2245
      9 C          66.8058   93.3149   14.6873 C.ar    1  UNL1        0.1567
     10 N          67.6966   93.9725   15.6994 N.pl3   1  UNL1       -0.3375
     11 S          65.9477   92.1069   14.9207 S.2     1  UNL1       -0.0519
     12 C          65.2283   91.7953   13.6419 C.ar    1  UNL1        0.0510
     13 C          64.2502   90.7181   13.2773 C.ar    1  UNL1        0.0264
     14 H          68.2238   94.7655   15.4496 H       1  UNL1        0.1442
     15 H          67.7539   93.6111   16.6133 H       1  UNL1        0.1442
     16 C          61.7292   88.5019   11.1600 C.3     1  UNL1        0.1822
     17 C          63.0914   84.2211   10.8963 C.ar    1  UNL1        0.0756
     18 C          62.9606   84.8855   12.2348 C.ar    1  UNL1        0.0062
     19 C          62.5066   86.3124   12.3227 C.ar    1  UNL1       -0.0023
     20 C          62.1832   87.0750   11.0721 C.ar    1  UNL1        0.0017
     21 C          62.3140   86.4106    9.7336 C.ar    1  UNL1       -0.0023
     22 C          62.7680   84.9837    9.6457 C.ar    1  UNL1        0.0062
     23 C          63.5454   82.7942   10.8084 C.2     1  UNL1        0.3413
     24 O          64.7633   82.4428   10.0065 O.2     1  UNL1       -0.2449
     25 C          63.2760   81.1949   12.8381 C.3     1  UNL1        0.2560
     26 O          62.7815   81.7187   11.5224 O.3     1  UNL1       -0.4413
@<TRIPOS>BOND
     1    25    26    1
     2    26    23    1
     3    23    24    2
     4    23    17    1
     5    17    18   ar
     6    18    19   ar
     7    19    20   ar
     8    20    16    1
     9    16     1    1
    10     1     2    2
    11     1     3    2
    12     1     4    1
    13     4     5   ar
    14     5     6   ar
    15     6     7   ar
    16     7     8   ar
    17     8     9   ar
    18     9    10    1
    19     9    11   ar
    20    11    12   ar
    21    12    13   ar
    22    20    21   ar
    23    21    22   ar
    24    22    17   ar
    25    13     4   ar
    26    12     7   ar
    27    10    14    1
    28    10    15    1
@<TRIPOS>MOLECULE
*****
 26 28 0 0 0
SMALL
GASTEIGER

@<TRIPOS>ATOM
      1 S          63.7153   89.2728   13.7053 S.O2    1  UNL1        0.0129
      2 O          62.5387   89.1900   12.7787 O.2     1  UNL1       -0.1683
      3 O          64.8920   89.3557   14.6319 O.2     1  UNL1       -0.1683
      4 C          63.8184   87.7763   13.7081 C.ar    1  UNL1        0.1066
      5 C          64.5651   87.0780   14.8058 C.ar    1  UNL1        0.0199
      6 C          64.6681   85.5816   14.8085 C.ar    1  UNL1        0.0210
      7 C          64.0245   84.7835   13.7137 C.ar    1  UNL1        0.0893
      8 N          63.9585   83.3077   13.4532 N.ar    1  UNL1       -0.2245
      9 C          63.1710   83.0939   12.1946 C.ar    1  UNL1        0.1567
     10 N          62.8589   81.7691   11.5640 N.pl3   1  UNL1       -0.3375
     11 S          62.7503   84.4376   11.6772 S.2     1  UNL1       -0.0519
     12 C          63.2779   85.4818   12.6160 C.ar    1  UNL1        0.0510
     13 C          63.1748   86.9782   12.6133 C.ar    1  UNL1        0.0264
     14 H          63.1808   80.9374   11.9810 H       1  UNL1        0.1442
     15 H          62.3320   81.7313   10.7332 H       1  UNL1        0.1442
     16 C          63.6122   90.7692   13.7025 C.3     1  UNL1        0.1822
     17 C          66.2022   93.1979   10.9378 C.ar    1  UNL1        0.0756
     18 C          65.0266   92.4419   10.3931 C.ar    1  UNL1        0.0062
     19 C          64.1633   91.6324   11.3147 C.ar    1  UNL1       -0.0023
     20 C          64.4756   91.5788   12.7809 C.ar    1  UNL1        0.0017
     21 C          65.6511   92.3347   13.3255 C.ar    1  UNL1       -0.0023
     22 C          66.5144   93.1442   12.4039 C.ar    1  UNL1        0.0062
     23 C          67.0656   94.0074   10.0162 C.2     1  UNL1        0.3413
     24 O          66.5134   95.2372    9.3585 O.2     1  UNL1       -0.2449
     25 C          68.7593   92.3230    8.9943 C.3     1  UNL1        0.2560
     26 O          68.4812   93.5871    9.7524 O.3     1  UNL1       -0.4413
@<TRIPOS>BOND
     1    25    26    1
     2    26    23    1
     3    23    24    2
     4    23    17    1
     5    17    18   ar
     6    18    19   ar
     7    19    20   ar
     8    20    16    1
     9    16     1    1
    10     1     2    2
    11     1     3    2
    12     1     4    1
    13     4     5   ar
    14     5     6   ar
    15     6     7   ar
    16     7     8   ar
    17     8     9   ar
    18     9    10    1
    19     9    11   ar
    20    11    12   ar
    21    12    13   ar
    22    20    21   ar
    23    21    22   ar
    24    22    17   ar
    25    13     4   ar
    26    12     7   ar
    27    10    14    1
    28    10    15    1
@<TRIPOS>MOLECULE
*****
 26 28 0 0 0
SMALL
GASTEIGER

@<TRIPOS>ATOM
      1 S          62.6576   89.5065   11.5061 S.O2    1  UNL1        0.0129
      2 O          62.8781   89.7047   10.0357 O.2     1  UNL1       -0.1683
      3 O          62.4370   89.3083   12.9764 O.2     1  UNL1       -0.1683
      4 C          63.6291   90.6108   11.8006 C.ar    1  UNL1        0.1066
      5 C          64.2230   90.7413   13.1718 C.ar    1  UNL1        0.0199
      6 C          65.1944   91.8456   13.4663 C.ar    1  UNL1        0.0210
      7 C          65.5719   92.8194   12.3897 C.ar    1  UNL1        0.0893
      8 N          66.4962   94.0009   12.3840 N.ar    1  UNL1       -0.2245
      9 C          66.4735   94.6005   11.0093 C.ar    1  UNL1        0.1567
     10 N          67.2523   95.8004   10.5577 N.pl3   1  UNL1       -0.3375
     11 S          65.5351   93.7897   10.1653 S.2     1  UNL1       -0.0519
     12 C          64.9780   92.6890   11.0185 C.ar    1  UNL1        0.0510
     13 C          64.0065   91.5847   10.7240 C.ar    1  UNL1        0.0264
     14 H          67.8455   96.2683   11.1888 H       1  UNL1        0.1442
     15 H          67.1703   96.1199    9.6301 H       1  UNL1        0.1442
     16 C          61.6861   88.4022   11.2114 C.3     1  UNL1        0.1822
     17 C          63.1295   84.1486   10.9400 C.ar    1  UNL1        0.0756
     18 C          62.7748   84.9014    9.6919 C.ar    1  UNL1        0.0062
     19 C          62.2937   86.3193    9.7824 C.ar    1  UNL1       -0.0023
     20 C          62.1672   86.9844   11.1210 C.ar    1  UNL1        0.0017
     21 C          62.5219   86.2316   12.3690 C.ar    1  UNL1       -0.0023
     22 C          63.0030   84.8137   12.2785 C.ar    1  UNL1        0.0062
     23 C          63.6106   82.7308   10.8495 C.2     1  UNL1        0.3413
     24 O          64.8430   82.4060   10.0586 O.2     1  UNL1       -0.2449
     25 C          63.3411   81.1266   12.8754 C.3     1  UNL1        0.2560
     26 O          62.8592   81.6377   11.5500 O.3     1  UNL1       -0.4413
@<TRIPOS>BOND
     1    25    26    1
     2    26    23    1
     3    23    24    2
     4    23    17    1
     5    17    18   ar
     6    18    19   ar
     7    19    20   ar
     8    20    16    1
     9    16     1    1
    10     1     2    2
    11     1     3    2
    12     1     4    1
    13     4     5   ar
    14     5     6   ar
    15     6     7   ar
    16     7     8   ar
    17     8     9   ar
    18     9    10    1
    19     9    11   ar
    20    11    12   ar
    21    12    13   ar
    22    20    21   ar
    23    21    22   ar
    24    22    17   ar
    25    13     4   ar
    26    12     7   ar
    27    10    14    1
    28    10    15    1
@<TRIPOS>MOLECULE
*****
 26 28 0 0 0
SMALL
GASTEIGER

@<TRIPOS>ATOM
      1 S          63.9374   89.3908   15.4867 S.O2    1  UNL1        0.0129
      2 O          64.6174   89.1276   14.1759 O.2     1  UNL1       -0.1683
      3 O          63.2574   89.6541   16.7974 O.2     1  UNL1       -0.1683
      4 C          63.6913   87.9206   15.6542 C.ar    1  UNL1        0.1066
      5 C          62.9759   87.4139   16.8713 C.ar    1  UNL1        0.0199
      6 C          62.7298   85.9437   17.0388 C.ar    1  UNL1        0.0210
      7 C          63.1991   84.9803   15.9892 C.ar    1  UNL1        0.0893
      8 N          63.1005   83.4874   15.8809 N.ar    1  UNL1       -0.2245
      9 C          63.7550   83.0716   14.5969 C.ar    1  UNL1        0.1567
     10 N          63.8839   81.6666   14.0876 N.pl3   1  UNL1       -0.3375
     11 S          64.2580   84.3075   13.9116 S.2     1  UNL1       -0.0519
     12 C          63.9145   85.4871   14.7721 C.ar    1  UNL1        0.0510
     13 C          64.1605   86.9572   14.6046 C.ar    1  UNL1        0.0264
     14 H          63.5195   80.9174   14.6123 H       1  UNL1        0.1442
     15 H          64.3328   81.4936   13.2287 H       1  UNL1        0.1442
     16 C          64.1835   90.8609   15.3191 C.3     1  UNL1        0.1822
     17 C          66.5769   92.3564   11.8140 C.ar    1  UNL1        0.0756
     18 C          65.1029   92.1187   11.6690 C.ar    1  UNL1        0.0062
     19 C          64.3051   91.6202   12.8374 C.ar    1  UNL1       -0.0023
     20 C          64.9813   91.3594   14.1507 C.ar    1  UNL1        0.0017
     21 C          66.4552   91.5971   14.2957 C.ar    1  UNL1       -0.0023
     22 C          67.2530   92.0956   13.1273 C.ar    1  UNL1        0.0062
     23 C          67.3746   92.8549   10.6457 C.2     1  UNL1        0.3413
     24 O          68.1276   91.8857    9.7834 O.2     1  UNL1       -0.2449
     25 C          67.7969   94.7912    8.9655 C.3     1  UNL1        0.2560
     26 O          67.4194   94.3228   10.3396 O.3     1  UNL1       -0.4413
@<TRIPOS>BOND
     1    25    26    1
     2    26    23    1
     3    23    24    2
     4    23    17    1
     5    17    18   ar
     6    18    19   ar
     7    19    20   ar
     8    20    16    1
     9    16     1    1
    10     1     2    2
    11     1     3    2
    12     1     4    1
    13     4     5   ar
    14     5     6   ar
    15     6     7   ar
    16     7     8   ar
    17     8     9   ar
    18     9    10    1
    19     9    11   ar
    20    11    12   ar
    21    12    13   ar
    22    20    21   ar
    23    21    22   ar
    24    22    17   ar
    25    13     4   ar
    26    12     7   ar
    27    10    14    1
    28    10    15    1
@<TRIPOS>MOLECULE
*****
 26 28 0 0 0
SMALL
GASTEIGER

@<TRIPOS>ATOM
      1 S          62.1434   87.6505   11.2637 S.O2    1  UNL1        0.0129
      2 O          61.1491   87.3931   10.1705 O.2     1  UNL1       -0.1683
      3 O          63.1376   87.9080   12.3569 O.2     1  UNL1       -0.1683
      4 C          62.4726   86.1877   11.3088 C.ar    1  UNL1        0.1066
      5 C          62.7396   85.4396   10.0364 C.ar    1  UNL1        0.0199
      6 C          63.0688   83.9769   10.0815 C.ar    1  UNL1        0.0210
      7 C          63.1310   83.2623   11.3989 C.ar    1  UNL1        0.0893
      8 N          63.4284   81.8355   11.7538 N.ar    1  UNL1       -0.2245
      9 C          63.3453   81.7020   13.2455 C.ar    1  UNL1        0.1567
     10 N          63.5712   80.4449   14.0322 N.pl3   1  UNL1       -0.3375
     11 S          62.9964   83.0462   13.8125 S.2     1  UNL1       -0.0519
     12 C          62.8640   84.0105   12.6712 C.ar    1  UNL1        0.0510
     13 C          62.5348   85.4732   12.6262 C.ar    1  UNL1        0.0264
     14 H          63.7972   79.6071   13.5671 H       1  UNL1        0.1442
     15 H          63.4936   80.4577   15.0135 H       1  UNL1        0.1442
     16 C          61.8141   89.1132   11.2187 C.3     1  UNL1        0.1822
     17 C          64.9745   92.1622   12.2014 C.ar    1  UNL1        0.0756
     18 C          64.3956   91.3051   13.2879 C.ar    1  UNL1        0.0062
     19 C          63.3422   90.2888   12.9603 C.ar    1  UNL1       -0.0023
     20 C          62.8676   90.1296   11.5463 C.ar    1  UNL1        0.0017
     21 C          63.4465   90.9866   10.4599 C.ar    1  UNL1       -0.0023
     22 C          64.4999   92.0029   10.7874 C.ar    1  UNL1        0.0062
     23 C          66.0279   93.1786   12.5290 C.2     1  UNL1        0.3413
     24 O          67.0570   93.5496   11.5027 O.2     1  UNL1       -0.2449
     25 C          67.1382   93.4792   14.8586 C.3     1  UNL1        0.2560
     26 O          66.0523   93.8239   13.8829 O.3     1  UNL1       -0.4413
@<TRIPOS>BOND
     1    25    26    1
     2    26    23    1
     3    23    24    2
     4    23    17    1
     5    17    18   ar
     6    18    19   ar
     7    19    20   ar
     8    20    16    1
     9    16     1    1
    10     1     2    2
    11     1     3    2
    12     1     4    1
    13     4     5   ar
    14     5     6   ar
    15     6     7   ar
    16     7     8   ar
    17     8     9   ar
    18     9    10    1
    19     9    11   ar
    20    11    12   ar
    21    12    13   ar
    22    20    21   ar
    23    21    22   ar
    24    22    17   ar
    25    13     4   ar
    26    12     7   ar
    27    10    14    1
    28    10    15    1
@<TRIPOS>MOLECULE
*****
 26 28 0 0 0
SMALL
GASTEIGER

@<TRIPOS>ATOM
      1 S          63.5532   89.0676   13.4062 S.O2    1  UNL1        0.0129
      2 O          62.4301   89.4169   12.4754 O.2     1  UNL1       -0.1683
      3 O          64.6764   88.7183   14.3371 O.2     1  UNL1       -0.1683
      4 C          63.3752   87.6152   13.0759 C.ar    1  UNL1        0.1066
      5 C          62.6644   87.2139   11.8175 C.ar    1  UNL1        0.0199
      6 C          62.4865   85.7616   11.4872 C.ar    1  UNL1        0.0210
      7 C          63.0194   84.7106   12.4153 C.ar    1  UNL1        0.0893
      8 N          62.9946   83.2120   12.3546 N.ar    1  UNL1       -0.2245
      9 C          63.6901   82.6871   13.5756 C.ar    1  UNL1        0.1567
     10 N          63.8951   81.2418   13.9207 N.pl3   1  UNL1       -0.3375
     11 S          64.1448   83.8613   14.3908 S.2     1  UNL1       -0.0519
     12 C          63.7302   85.1119   13.6737 C.ar    1  UNL1        0.0510
     13 C          63.9082   86.5642   14.0040 C.ar    1  UNL1        0.0264
     14 H          63.5583   80.5394   13.3187 H       1  UNL1        0.1442
     15 H          64.3664   80.9956   14.7493 H       1  UNL1        0.1442
     16 C          63.7312   90.5199   13.7366 C.3     1  UNL1        0.1822
     17 C          66.4052   93.0947   11.1929 C.ar    1  UNL1        0.0756
     18 C          66.7751   92.8076   12.6180 C.ar    1  UNL1        0.0062
     19 C          65.8837   91.9493   13.4659 C.ar    1  UNL1       -0.0023
     20 C          64.6225   91.3781   12.8887 C.ar    1  UNL1        0.0017
     21 C          64.2526   91.6652   11.4637 C.ar    1  UNL1       -0.0023
     22 C          65.1440   92.5235   10.6158 C.ar    1  UNL1        0.0062
     23 C          67.2965   93.9529   10.3451 C.2     1  UNL1        0.3413
     24 O          68.5229   93.3651    9.7124 O.2     1  UNL1       -0.2449
     25 C          66.1134   96.1292   11.1288 C.3     1  UNL1        0.2560
     26 O          66.9613   95.3992   10.1298 O.3     1  UNL1       -0.4413
@<TRIPOS>BOND
     1    25    26    1
     2    26    23    1
     3    23    24    2
     4    23    17    1
     5    17    18   ar
     6    18    19   ar
     7    19    20   ar
     8    20    16    1
     9    16     1    1
    10     1     2    2
    11     1     3    2
    12     1     4    1
    13     4     5   ar
    14     5     6   ar
    15     6     7   ar
    16     7     8   ar
    17     8     9   ar
    18     9    10    1
    19     9    11   ar
    20    11    12   ar
    21    12    13   ar
    22    20    21   ar
    23    21    22   ar
    24    22    17   ar
    25    13     4   ar
    26    12     7   ar
    27    10    14    1
    28    10    15    1
@<TRIPOS>MOLECULE
*****
 26 28 0 0 0
SMALL
GASTEIGER

@<TRIPOS>ATOM
      1 S          63.2395   90.0851   12.7378 S.O2    1  UNL1        0.0129
      2 O          63.8745   90.8845   11.6389 O.2     1  UNL1       -0.1683
      3 O          62.6046   89.2856   13.8367 O.2     1  UNL1       -0.1683
      4 C          64.0764   90.8108   13.7493 C.ar    1  UNL1        0.1066
      5 C          63.6410   90.8638   15.1837 C.ar    1  UNL1        0.0199
      6 C          64.4778   91.5896   16.1951 C.ar    1  UNL1        0.0210
      7 C          65.7500   92.2623   15.7721 C.ar    1  UNL1        0.0893
      8 N          66.7735   93.0467   16.5385 N.ar    1  UNL1       -0.2245
      9 C          67.8415   93.4784   15.5777 C.ar    1  UNL1        0.1567
     10 N          69.0591   94.2858   15.9174 N.pl3   1  UNL1       -0.3375
     11 S          67.4779   92.9609   14.2175 S.2     1  UNL1       -0.0519
     12 C          66.1854   92.2093   14.3377 C.ar    1  UNL1        0.0510
     13 C          65.3486   91.4836   13.3263 C.ar    1  UNL1        0.0264
     14 H          69.2113   94.5809   16.8442 H       1  UNL1        0.1442
     15 H          69.7062   94.5206   15.2135 H       1  UNL1        0.1442
     16 C          62.4028   89.3593   11.7263 C.3     1  UNL1        0.1822
     17 C          62.8455   84.9104   11.2153 C.ar    1  UNL1        0.0756
     18 C          62.2328   85.7337   10.1213 C.ar    1  UNL1        0.0062
     19 C          62.0852   87.2167   10.2916 C.ar    1  UNL1       -0.0023
     20 C          62.5504   87.8764   11.5560 C.ar    1  UNL1        0.0017
     21 C          63.1630   87.0531   12.6499 C.ar    1  UNL1       -0.0023
     22 C          63.3106   85.5701   12.4796 C.ar    1  UNL1        0.0062
     23 C          62.9931   83.4275   11.0450 C.2     1  UNL1        0.3413
     24 O          63.9413   82.8810   10.0192 O.2     1  UNL1       -0.2449
     25 C          62.8477   81.2882   12.5121 C.3     1  UNL1        0.2560
     26 O          62.1924   82.4909   11.9006 O.3     1  UNL1       -0.4413
@<TRIPOS>BOND
     1    25    26    1
     2    26    23    1
     3    23    24    2
     4    23    17    1
     5    17    18   ar
     6    18    19   ar
     7    19    20   ar
     8    20    16    1
     9    16     1    1
    10     1     2    2
    11     1     3    2
    12     1     4    1
    13     4     5   ar
    14     5     6   ar
    15     6     7   ar
    16     7     8   ar
    17     8     9   ar
    18     9    10    1
    19     9    11   ar
    20    11    12   ar
    21    12    13   ar
    22    20    21   ar
    23    21    22   ar
    24    22    17   ar
    25    13     4   ar
    26    12     7   ar
    27    10    14    1
    28    10    15    1
@<TRIPOS>MOLECULE
*****
 26 28 0 0 0
SMALL
GASTEIGER

@<TRIPOS>ATOM
      1 S          62.1039   88.3769   11.0944 S.O2    1  UNL1        0.0129
      2 O          61.3284   88.7893   12.3103 O.2     1  UNL1       -0.1683
      3 O          62.8793   87.9644    9.8785 O.2     1  UNL1       -0.1683
      4 C          62.9079   89.6404   11.1787 C.ar    1  UNL1        0.1066
      5 C          62.9119   90.6048   10.0298 C.ar    1  UNL1        0.0199
      6 C          63.7159   91.8683   10.1141 C.ar    1  UNL1        0.0210
      7 C          64.5158   92.1674   11.3472 C.ar    1  UNL1        0.0893
      8 N          65.3978   93.3236   11.7156 N.ar    1  UNL1       -0.2245
      9 C          65.9388   93.0737   13.0921 C.ar    1  UNL1        0.1567
     10 N          66.8648   93.9759   13.8528 N.pl3   1  UNL1       -0.3375
     11 S          65.3912   91.7631   13.5745 S.2     1  UNL1       -0.0519
     12 C          64.5118   91.2031   12.4961 C.ar    1  UNL1        0.0510
     13 C          63.7078   89.9396   12.4118 C.ar    1  UNL1        0.0264
     14 H          67.1710   94.8201   13.4494 H       1  UNL1        0.1442
     15 H          67.1664   93.7238   14.7554 H       1  UNL1        0.1442
     16 C          61.2999   87.1134   11.0102 C.3     1  UNL1        0.1822
     17 C          63.0062   83.2525   12.5700 C.ar    1  UNL1        0.0756
     18 C          62.6899   83.3974   11.1108 C.ar    1  UNL1        0.0062
     19 C          62.1211   84.6844   10.5909 C.ar    1  UNL1       -0.0023
     20 C          61.8687   85.8264   11.5301 C.ar    1  UNL1        0.0017
     21 C          62.1849   85.6815   12.9892 C.ar    1  UNL1       -0.0023
     22 C          62.7537   84.3945   13.5091 C.ar    1  UNL1        0.0062
     23 C          63.5749   81.9656   13.0899 C.2     1  UNL1        0.3413
     24 O          64.8939   81.4675   12.5778 O.2     1  UNL1       -0.2449
     25 C          61.3247   81.1743   14.1196 C.3     1  UNL1        0.2560
     26 O          62.8247   81.1768   14.1219 O.3     1  UNL1       -0.4413
@<TRIPOS>BOND
     1    25    26    1
     2    26    23    1
     3    23    24    2
     4    23    17    1
     5    17    18   ar
     6    18    19   ar
     7    19    20   ar
     8    20    16    1
     9    16     1    1
    10     1     2    2
    11     1     3    2
    12     1     4    1
    13     4     5   ar
    14     5     6   ar
    15     6     7   ar
    16     7     8   ar
    17     8     9   ar
    18     9    10    1
    19     9    11   ar
    20    11    12   ar
    21    12    13   ar
    22    20    21   ar
    23    21    22   ar
    24    22    17   ar
    25    13     4   ar
    26    12     7   ar
    27    10    14    1
    28    10    15    1
@<TRIPOS>MOLECULE
*****
 26 28 0 0 0
SMALL
GASTEIGER

@<TRIPOS>ATOM
      1 S          64.0395   89.5565   14.2699 S.O2    1  UNL1        0.0129
      2 O          65.5116   89.3059   14.1284 O.2     1  UNL1       -0.1683
      3 O          62.5674   89.8071   14.4115 O.2     1  UNL1       -0.1683
      4 C          63.7619   88.1253   13.9164 C.ar    1  UNL1        0.1066
      5 C          63.2215   87.7789   12.5607 C.ar    1  UNL1        0.0199
      6 C          62.9440   86.3478   12.2073 C.ar    1  UNL1        0.0210
      7 C          63.2068   85.2632   13.2095 C.ar    1  UNL1        0.0893
      8 N          63.0318   83.7747   13.1468 N.ar    1  UNL1       -0.2245
      9 C          63.4640   83.2013   14.4637 C.ar    1  UNL1        0.1567
     10 N          63.4555   81.7488   14.8383 N.pl3   1  UNL1       -0.3375
     11 S          63.9062   84.3353   15.3403 S.2     1  UNL1       -0.0519
     12 C          63.7472   85.6096   14.5652 C.ar    1  UNL1        0.0510
     13 C          64.0248   87.0407   14.9186 C.ar    1  UNL1        0.0264
     14 H          63.1456   81.0752   14.1907 H       1  UNL1        0.1442
     15 H          63.7599   81.4691   15.7318 H       1  UNL1        0.1442
     16 C          64.3171   90.9875   14.6234 C.3     1  UNL1        0.1822
     17 C          66.1860   93.7333   11.5873 C.ar    1  UNL1        0.0756
     18 C          66.5666   93.8447   13.0340 C.ar    1  UNL1        0.0062
     19 C          65.9436   92.9294   14.0460 C.ar    1  UNL1       -0.0023
     20 C          64.9400   91.9028   13.6114 C.ar    1  UNL1        0.0017
     21 C          64.5594   91.7915   12.1648 C.ar    1  UNL1       -0.0023
     22 C          65.1824   92.7067   11.1528 C.ar    1  UNL1        0.0062
     23 C          66.8089   94.6486   10.5753 C.2     1  UNL1        0.3413
     24 O          68.1399   94.3069    9.9740 O.2     1  UNL1       -0.2449
     25 C          65.5409   96.8262   11.2082 C.3     1  UNL1        0.2560
     26 O          66.1008   95.9056   10.1646 O.3     1  UNL1       -0.4413
@<TRIPOS>BOND
     1    25    26    1
     2    26    23    1
     3    23    24    2
     4    23    17    1
     5    17    18   ar
     6    18    19   ar
     7    19    20   ar
     8    20    16    1
     9    16     1    1
    10     1     2    2
    11     1     3    2
    12     1     4    1
    13     4     5   ar
    14     5     6   ar
    15     6     7   ar
    16     7     8   ar
    17     8     9   ar
    18     9    10    1
    19     9    11   ar
    20    11    12   ar
    21    12    13   ar
    22    20    21   ar
    23    21    22   ar
    24    22    17   ar
    25    13     4   ar
    26    12     7   ar
    27    10    14    1
    28    10    15    1
