@<TRIPOS>MOLECULE
*****
 26 29 0 0 0
SMALL
GASTEIGER

@<TRIPOS>ATOM
      1 C          64.4745   90.5887   14.5497 C.ar    1  UNL1        0.0537
      2 C          64.5987   89.1441   14.9339 C.ar    1  UNL1        0.0061
      3 C          64.0763   88.0769   14.0184 C.ar    1  UNL1        0.0193
      4 C          63.4298   88.4542   12.7186 C.ar    1  UNL1        0.0824
      5 C          63.3056   89.8989   12.3343 C.ar    1  UNL1        0.0193
      6 C          63.8279   90.9661   13.2499 C.ar    1  UNL1        0.0061
      7 N          62.9074   87.3870   11.8030 N.ar    1  UNL1       -0.2339
      8 N          62.2465   87.6105   10.4752 N.ar    1  UNL1       -0.1617
      9 C          61.8849   86.2705    9.9061 C.ar    1  UNL1        0.1720
     10 C          62.3224   85.2190   10.8823 C.ar    1  UNL1        0.0443
     11 C          62.9544   85.9090   12.0546 C.ar    1  UNL1        0.0628
     12 C          63.4909   85.1024   13.1998 C.3     1  UNL1        0.0777
     13 C          63.3955   83.6057   13.1726 C.3     1  UNL1        0.1489
     14 O          62.7636   82.9157   12.0002 O.3     1  UNL1       -0.3485
     15 C          62.2270   83.7223   10.8550 C.3     1  UNL1        0.1713
     16 C          61.2052   86.0252    8.5917 C.3     1  UNL1        0.4363
     17 F          60.5255   85.7798    7.2772 F       1  UNL1       -0.1644
     18 F          62.5129   85.5955    7.9956 F       1  UNL1       -0.1644
     19 F          59.8975   86.4549    9.1877 F       1  UNL1       -0.1644
     20 O          64.0997   92.2551   16.5074 O.2     1  UNL1       -0.2699
     21 C          64.9968   91.6559   15.4652 C.2     1  UNL1        0.2490
     22 N          66.4162   92.1239   15.3385 N.am    1  UNL1       -0.2761
     23 C          67.0756   93.1774   16.1785 C.3     1  UNL1        0.0938
     24 C          68.4924   93.3252   15.7088 C.3     1  UNL1        0.0233
     25 C          68.7088   92.3631   14.5784 C.3     1  UNL1        0.0233
     26 C          67.4257   91.6207   14.3496 C.3     1  UNL1        0.0938
@<TRIPOS>BOND
     1    20    21    2
     2    21     1    1
     3     1     2   ar
     4     2     3   ar
     5     3     4   ar
     6     4     7    1
     7     7     8   ar
     8     8     9   ar
     9     9    16    1
    10    16    17    1
    11    16    18    1
    12    16    19    1
    13     9    10   ar
    14    10    11   ar
    15    11    12    1
    16    12    13    1
    17    13    14    1
    18    14    15    1
    19     4     5   ar
    20     5     6   ar
    21    21    22   am
    22    22    23    1
    23    23    24    1
    24    24    25    1
    25    25    26    1
    26     6     1   ar
    27    26    22    1
    28    11     7   ar
    29    15    10    1
@<TRIPOS>MOLECULE
*****
 26 29 0 0 0
SMALL
GASTEIGER

@<TRIPOS>ATOM
      1 C          64.3362   90.4013   14.6081 C.ar    1  UNL1        0.0537
      2 C          63.7190   90.6920   13.2722 C.ar    1  UNL1        0.0061
      3 C          63.2785   89.5633   12.3879 C.ar    1  UNL1        0.0193
      4 C          63.4552   88.1439   12.8394 C.ar    1  UNL1        0.0824
      5 C          64.0724   87.8531   14.1753 C.ar    1  UNL1        0.0193
      6 C          64.5129   88.9819   15.0596 C.ar    1  UNL1        0.0061
      7 N          63.0147   87.0152   11.9551 N.ar    1  UNL1       -0.2339
      8 N          63.4061   85.5747   12.1032 N.ar    1  UNL1       -0.1617
      9 C          62.7387   84.7981   11.0071 C.ar    1  UNL1        0.1720
     10 C          61.9350   85.7586   10.1815 C.ar    1  UNL1        0.0443
     11 C          62.1056   87.1288   10.7674 C.ar    1  UNL1        0.0628
     12 C          61.4110   88.3030   10.1438 C.3     1  UNL1        0.0777
     13 C          60.5459   88.1068    8.9342 C.3     1  UNL1        0.1489
     14 O          60.3754   86.7366    8.3483 O.3     1  UNL1       -0.3485
     15 C          61.0699   85.5624    8.9719 C.3     1  UNL1        0.1713
     16 C          62.8548   83.3204   10.7769 C.3     1  UNL1        0.4363
     17 F          62.9709   81.8427   10.5466 F       1  UNL1       -0.1644
     18 F          63.6008   83.5777    9.5012 F       1  UNL1       -0.1644
     19 F          62.1089   83.0631   12.0524 F       1  UNL1       -0.1644
     20 O          63.8160   92.1322   16.4745 O.2     1  UNL1       -0.2699
     21 C          64.7767   91.5300   15.4924 C.2     1  UNL1        0.2490
     22 N          66.1778   92.0565   15.3945 N.am    1  UNL1       -0.2761
     23 C          66.7585   93.1746   16.2088 C.3     1  UNL1        0.0938
     24 C          68.1837   93.3665   15.7828 C.3     1  UNL1        0.0233
     25 C          68.4841   92.3672   14.7051 C.3     1  UNL1        0.0233
     26 C          67.2444   91.5576   14.4652 C.3     1  UNL1        0.0938
@<TRIPOS>BOND
     1    20    21    2
     2    21     1    1
     3     1     2   ar
     4     2     3   ar
     5     3     4   ar
     6     4     7    1
     7     7     8   ar
     8     8     9   ar
     9     9    16    1
    10    16    17    1
    11    16    18    1
    12    16    19    1
    13     9    10   ar
    14    10    11   ar
    15    11    12    1
    16    12    13    1
    17    13    14    1
    18    14    15    1
    19     4     5   ar
    20     5     6   ar
    21    21    22   am
    22    22    23    1
    23    23    24    1
    24    24    25    1
    25    25    26    1
    26     6     1   ar
    27    26    22    1
    28    11     7   ar
    29    15    10    1
@<TRIPOS>MOLECULE
*****
 26 29 0 0 0
SMALL
GASTEIGER

@<TRIPOS>ATOM
      1 C          61.4819   88.4172   10.0375 C.ar    1  UNL1        0.0537
      2 C          61.6767   89.8599    9.6762 C.ar    1  UNL1        0.0061
      3 C          62.5893   90.7220   10.4972 C.ar    1  UNL1        0.0193
      4 C          63.3069   90.1415   11.6795 C.ar    1  UNL1        0.0824
      5 C          63.1120   88.6987   12.0408 C.ar    1  UNL1        0.0193
      6 C          62.1995   87.8366   11.2198 C.ar    1  UNL1        0.0061
      7 N          64.2194   91.0036   12.5005 N.ar    1  UNL1       -0.2339
      8 N          64.5154   90.8333   13.9611 N.ar    1  UNL1       -0.1617
      9 C          65.4751   91.9118   14.3684 C.ar    1  UNL1        0.1720
     10 C          65.7722   92.7486   13.1594 C.ar    1  UNL1        0.0443
     11 C          64.9962   92.1873   12.0050 C.ar    1  UNL1        0.0628
     12 C          65.0971   92.8265   10.6518 C.3     1  UNL1        0.0777
     13 C          65.9740   94.0271   10.4531 C.3     1  UNL1        0.1489
     14 O          66.7501   94.5884   11.6075 O.3     1  UNL1       -0.3485
     15 C          66.6492   93.9492   12.9607 C.3     1  UNL1        0.1713
     16 C          66.0387   92.1175   15.7432 C.3     1  UNL1        0.4363
     17 F          66.6024   92.3231   17.1179 F       1  UNL1       -0.1644
     18 F          67.4201   91.8686   15.2141 F       1  UNL1       -0.1644
     19 F          64.6574   92.3663   16.2722 F       1  UNL1       -0.1644
     20 O          59.0903   87.8049    9.2277 O.2     1  UNL1       -0.2699
     21 C          60.5693   87.5551    9.2164 C.2     1  UNL1        0.2490
     22 N          61.1359   86.4432    8.3842 N.am    1  UNL1       -0.2761
     23 C          60.3518   85.5036    7.5167 C.3     1  UNL1        0.0938
     24 C          61.3172   84.5554    6.8696 C.3     1  UNL1        0.0233
     25 C          62.6980   84.9089    7.3372 C.3     1  UNL1        0.0233
     26 C          62.5860   86.0756    8.2732 C.3     1  UNL1        0.0938
@<TRIPOS>BOND
     1    20    21    2
     2    21     1    1
     3     1     2   ar
     4     2     3   ar
     5     3     4   ar
     6     4     7    1
     7     7     8   ar
     8     8     9   ar
     9     9    16    1
    10    16    17    1
    11    16    18    1
    12    16    19    1
    13     9    10   ar
    14    10    11   ar
    15    11    12    1
    16    12    13    1
    17    13    14    1
    18    14    15    1
    19     4     5   ar
    20     5     6   ar
    21    21    22   am
    22    22    23    1
    23    23    24    1
    24    24    25    1
    25    25    26    1
    26     6     1   ar
    27    26    22    1
    28    11     7   ar
    29    15    10    1
@<TRIPOS>MOLECULE
*****
 26 29 0 0 0
SMALL
GASTEIGER

@<TRIPOS>ATOM
      1 C          64.8370   91.3114   14.5432 C.ar    1  UNL1        0.0537
      2 C          64.5534   91.8476   13.1714 C.ar    1  UNL1        0.0061
      3 C          63.8029   91.0098   12.1790 C.ar    1  UNL1        0.0193
      4 C          63.3360   89.6358   12.5583 C.ar    1  UNL1        0.0824
      5 C          63.6197   89.0995   13.9302 C.ar    1  UNL1        0.0193
      6 C          64.3702   89.9373   14.9226 C.ar    1  UNL1        0.0061
      7 N          62.5856   88.7980   11.5659 N.ar    1  UNL1       -0.2339
      8 N          61.7503   89.3120   10.4310 N.ar    1  UNL1       -0.1617
      9 C          61.1871   88.1308    9.6979 C.ar    1  UNL1        0.1720
     10 C          61.6743   86.8867   10.3797 C.ar    1  UNL1        0.0443
     11 C          62.5386   87.2991   11.5342 C.ar    1  UNL1        0.0628
     12 C          63.1712   86.2564   12.4075 C.3     1  UNL1        0.0777
     13 C          62.9395   84.8014   12.1263 C.3     1  UNL1        0.1489
     14 O          62.0752   84.3890   10.9717 O.3     1  UNL1       -0.3485
     15 C          61.4426   85.4317   10.0985 C.3     1  UNL1        0.1713
     16 C          60.2936   88.1842    8.4942 C.3     1  UNL1        0.4363
     17 F          59.4001   88.2375    7.2905 F       1  UNL1       -0.1644
     18 F          60.8872   86.8996    7.9966 F       1  UNL1       -0.1644
     19 F          59.7000   89.4686    8.9918 F       1  UNL1       -0.1644
     20 O          64.8855   92.6842   16.7485 O.2     1  UNL1       -0.2699
     21 C          65.5875   92.1492   15.5356 C.2     1  UNL1        0.2490
     22 N          67.0400   92.4520   15.3151 N.am    1  UNL1       -0.2761
     23 C          67.9165   93.2712   16.2156 C.3     1  UNL1        0.0938
     24 C          69.2891   93.3143   15.6125 C.3     1  UNL1        0.0233
     25 C          69.2611   92.5217   14.3392 C.3     1  UNL1        0.0233
     26 C          67.8711   91.9887   14.1554 C.3     1  UNL1        0.0938
@<TRIPOS>BOND
     1    20    21    2
     2    21     1    1
     3     1     2   ar
     4     2     3   ar
     5     3     4   ar
     6     4     7    1
     7     7     8   ar
     8     8     9   ar
     9     9    16    1
    10    16    17    1
    11    16    18    1
    12    16    19    1
    13     9    10   ar
    14    10    11   ar
    15    11    12    1
    16    12    13    1
    17    13    14    1
    18    14    15    1
    19     4     5   ar
    20     5     6   ar
    21    21    22   am
    22    22    23    1
    23    23    24    1
    24    24    25    1
    25    25    26    1
    26     6     1   ar
    27    26    22    1
    28    11     7   ar
    29    15    10    1
@<TRIPOS>MOLECULE
*****
 26 29 0 0 0
SMALL
GASTEIGER

@<TRIPOS>ATOM
      1 C          62.0941   88.0728   10.8555 C.ar    1  UNL1        0.0537
      2 C          62.2997   89.4340   10.2600 C.ar    1  UNL1        0.0061
      3 C          63.1880   90.4275   10.9485 C.ar    1  UNL1        0.0193
      4 C          63.8707   90.0597   12.2324 C.ar    1  UNL1        0.0824
      5 C          63.6651   88.6984   12.8280 C.ar    1  UNL1        0.0193
      6 C          62.7768   87.7049   12.1395 C.ar    1  UNL1        0.0061
      7 N          64.7589   91.0532   12.9209 N.ar    1  UNL1       -0.2339
      8 N          65.3153   90.9256   14.3081 N.ar    1  UNL1       -0.1617
      9 C          66.1470   92.1422   14.5876 C.ar    1  UNL1        0.1720
     10 C          66.1047   93.0217   13.3732 C.ar    1  UNL1        0.0443
     11 C          65.2468   92.3486   12.3431 C.ar    1  UNL1        0.0628
     12 C          65.0206   93.0023   11.0122 C.3     1  UNL1        0.0777
     13 C          65.6524   94.3290   10.7112 C.3     1  UNL1        0.1489
     14 O          66.5103   95.0021   11.7413 O.3     1  UNL1       -0.3485
     15 C          66.7364   94.3485   13.0722 C.3     1  UNL1        0.1713
     16 C          66.8906   92.4290   15.8583 C.3     1  UNL1        0.4363
     17 F          67.6340   92.7159   17.1292 F       1  UNL1       -0.1644
     18 F          65.5906   92.6879   16.5605 F       1  UNL1       -0.1644
     19 F          68.1905   92.1702   15.1562 F       1  UNL1       -0.1644
     20 O          61.1862   85.6498   10.6209 O.2     1  UNL1       -0.2699
     21 C          61.2058   87.0793   10.1670 C.2     1  UNL1        0.2490
     22 N          60.3372   87.5154    9.0246 N.am    1  UNL1       -0.2761
     23 C          59.4024   86.6400    8.2434 C.3     1  UNL1        0.0938
     24 C          58.7383   87.4870    7.1988 C.3     1  UNL1        0.0233
     25 C          59.2625   88.8860    7.3342 C.3     1  UNL1        0.0233
     26 C          60.2506   88.9036    8.4626 C.3     1  UNL1        0.0938
@<TRIPOS>BOND
     1    20    21    2
     2    21     1    1
     3     1     2   ar
     4     2     3   ar
     5     3     4   ar
     6     4     7    1
     7     7     8   ar
     8     8     9   ar
     9     9    16    1
    10    16    17    1
    11    16    18    1
    12    16    19    1
    13     9    10   ar
    14    10    11   ar
    15    11    12    1
    16    12    13    1
    17    13    14    1
    18    14    15    1
    19     4     5   ar
    20     5     6   ar
    21    21    22   am
    22    22    23    1
    23    23    24    1
    24    24    25    1
    25    25    26    1
    26     6     1   ar
    27    26    22    1
    28    11     7   ar
    29    15    10    1
@<TRIPOS>MOLECULE
*****
 26 29 0 0 0
SMALL
GASTEIGER

@<TRIPOS>ATOM
      1 C          63.0567   83.5156   13.5925 C.ar    1  UNL1        0.0537
      2 C          63.8683   84.1398   14.6886 C.ar    1  UNL1        0.0061
      3 C          64.1383   85.6153   14.6748 C.ar    1  UNL1        0.0193
      4 C          63.5967   86.4665   13.5650 C.ar    1  UNL1        0.0824
      5 C          62.7850   85.8423   12.4688 C.ar    1  UNL1        0.0193
      6 C          62.5150   84.3669   12.4826 C.ar    1  UNL1        0.0061
      7 N          63.8667   87.9420   13.5512 N.ar    1  UNL1       -0.2339
      8 N          64.6225   88.7098   14.5948 N.ar    1  UNL1       -0.1617
      9 C          64.6512   90.1510   14.1799 C.ar    1  UNL1        0.1720
     10 C          63.9131   90.2739   12.8798 C.ar    1  UNL1        0.0443
     11 C          63.4283   88.9086   12.4912 C.ar    1  UNL1        0.0628
     12 C          62.6502   88.7220   11.2225 C.3     1  UNL1        0.0777
     13 C          62.3570   89.9007   10.3423 C.3     1  UNL1        0.1489
     14 O          62.8418   91.2659   10.7309 O.3     1  UNL1       -0.3485
     15 C          63.6199   91.4525   11.9997 C.3     1  UNL1        0.1713
     16 C          65.3034   91.2724   14.9329 C.3     1  UNL1        0.4363
     17 F          65.9556   92.3939   15.6859 F       1  UNL1       -0.1644
     18 F          64.1801   91.2584   15.9268 F       1  UNL1       -0.1644
     19 F          66.4266   91.2865   13.9390 F       1  UNL1       -0.1644
     20 O          62.4072   81.3591   14.8877 O.2     1  UNL1       -0.2699
     21 C          62.7867   82.0402   13.6063 C.2     1  UNL1        0.2490
     22 N          62.8962   81.2459   12.3386 N.am    1  UNL1       -0.2761
     23 C          62.6572   79.7716   12.1984 C.3     1  UNL1        0.0938
     24 C          62.8772   79.4009   10.7618 C.3     1  UNL1        0.0233
     25 C          63.2522   80.6460   10.0139 C.3     1  UNL1        0.0233
     26 C          63.2640   81.7862   10.9884 C.3     1  UNL1        0.0938
@<TRIPOS>BOND
     1    20    21    2
     2    21     1    1
     3     1     2   ar
     4     2     3   ar
     5     3     4   ar
     6     4     7    1
     7     7     8   ar
     8     8     9   ar
     9     9    16    1
    10    16    17    1
    11    16    18    1
    12    16    19    1
    13     9    10   ar
    14    10    11   ar
    15    11    12    1
    16    12    13    1
    17    13    14    1
    18    14    15    1
    19     4     5   ar
    20     5     6   ar
    21    21    22   am
    22    22    23    1
    23    23    24    1
    24    24    25    1
    25    25    26    1
    26     6     1   ar
    27    26    22    1
    28    11     7   ar
    29    15    10    1
@<TRIPOS>MOLECULE
*****
 26 29 0 0 0
SMALL
GASTEIGER

@<TRIPOS>ATOM
      1 C          61.3270   87.9816    9.7763 C.ar    1  UNL1        0.0537
      2 C          61.4167   89.4700    9.6126 C.ar    1  UNL1        0.0061
      3 C          62.2221   90.2838   10.5817 C.ar    1  UNL1        0.0193
      4 C          62.9376   89.6095   11.7144 C.ar    1  UNL1        0.0824
      5 C          62.8479   88.1211   11.8781 C.ar    1  UNL1        0.0193
      6 C          62.0425   87.3072   10.9090 C.ar    1  UNL1        0.0061
      7 N          63.7429   90.4234   12.6835 N.ar    1  UNL1       -0.2339
      8 N          64.8282   91.3963   12.3292 N.ar    1  UNL1       -0.1617
      9 C          65.3603   91.9814   13.6037 C.ar    1  UNL1        0.1720
     10 C          64.6039   91.3701   14.7457 C.ar    1  UNL1        0.0443
     11 C          63.6043   90.4071   14.1770 C.ar    1  UNL1        0.0628
     12 C          62.6970   89.6399   15.0925 C.3     1  UNL1        0.0777
     13 C          62.7894   89.8357   16.5767 C.3     1  UNL1        0.1489
     14 O          63.7890   90.7986   17.1455 O.3     1  UNL1       -0.3485
     15 C          64.6963   91.5658   16.2300 C.3     1  UNL1        0.1713
     16 C          66.4564   92.9992   13.7165 C.3     1  UNL1        0.4363
     17 F          67.5525   94.0170   13.8292 F       1  UNL1       -0.1644
     18 F          65.6955   93.9193   12.8085 F       1  UNL1       -0.1644
     19 F          67.2173   92.0792   14.6244 F       1  UNL1       -0.1644
     20 O          59.0508   87.4203    8.6566 O.2     1  UNL1       -0.2699
     21 C          60.5217   87.1678    8.8072 C.2     1  UNL1        0.2490
     22 N          61.1873   86.1014    7.9889 N.am    1  UNL1       -0.2761
     23 C          60.5153   85.2123    6.9847 C.3     1  UNL1        0.0938
     24 C          61.5544   84.2983    6.4062 C.3     1  UNL1        0.0233
     25 C          62.8687   84.6224    7.0527 C.3     1  UNL1        0.0233
     26 C          62.6418   85.7367    8.0308 C.3     1  UNL1        0.0938
@<TRIPOS>BOND
     1    20    21    2
     2    21     1    1
     3     1     2   ar
     4     2     3   ar
     5     3     4   ar
     6     4     7    1
     7     7     8   ar
     8     8     9   ar
     9     9    16    1
    10    16    17    1
    11    16    18    1
    12    16    19    1
    13     9    10   ar
    14    10    11   ar
    15    11    12    1
    16    12    13    1
    17    13    14    1
    18    14    15    1
    19     4     5   ar
    20     5     6   ar
    21    21    22   am
    22    22    23    1
    23    23    24    1
    24    24    25    1
    25    25    26    1
    26     6     1   ar
    27    26    22    1
    28    11     7   ar
    29    15    10    1
@<TRIPOS>MOLECULE
*****
 26 29 0 0 0
SMALL
GASTEIGER

@<TRIPOS>ATOM
      1 C          64.1073   90.5333   14.1166 C.ar    1  UNL1        0.0537
      2 C          63.6314   91.2211   12.8714 C.ar    1  UNL1        0.0061
      3 C          63.1118   90.4125   11.7198 C.ar    1  UNL1        0.0193
      4 C          63.0681   88.9161   11.8133 C.ar    1  UNL1        0.0824
      5 C          63.5441   88.2283   13.0585 C.ar    1  UNL1        0.0193
      6 C          64.0637   89.0369   14.2101 C.ar    1  UNL1        0.0061
      7 N          62.5485   88.1075   10.6617 N.ar    1  UNL1       -0.2339
      8 N          63.1002   86.7967   10.1848 N.ar    1  UNL1       -0.1617
      9 C          62.2786   86.3468    9.0132 C.ar    1  UNL1        0.1720
     10 C          61.2192   87.3796    8.7660 C.ar    1  UNL1        0.0443
     11 C          61.3860   88.4678    9.7849 C.ar    1  UNL1        0.0628
     12 C          60.4579   89.6461    9.7826 C.3     1  UNL1        0.0777
     13 C          59.3629   89.7362    8.7614 C.3     1  UNL1        0.1489
     14 O          59.1961   88.6480    7.7425 O.3     1  UNL1       -0.3485
     15 C          60.1243   87.4697    7.7449 C.3     1  UNL1        0.1713
     16 C          62.4809   85.0856    8.2268 C.3     1  UNL1        0.4363
     17 F          62.6832   83.8244    7.4404 F       1  UNL1       -0.1644
     18 F          61.5167   85.5782    7.1888 F       1  UNL1       -0.1644
     19 F          63.4452   84.5930    9.2648 F       1  UNL1       -0.1644
     20 O          63.7359   91.6409   16.4372 O.2     1  UNL1       -0.2699
     21 C          64.6269   91.3420   15.2682 C.2     1  UNL1        0.2490
     22 N          66.0375   91.8517   15.2506 N.am    1  UNL1       -0.2761
     23 C          66.6933   92.6687   16.3243 C.3     1  UNL1        0.0938
     24 C          68.1011   92.9558   15.8936 C.3     1  UNL1        0.0233
     25 C          68.3155   92.3163   14.5537 C.3     1  UNL1        0.0233
     26 C          67.0402   91.6340   14.1563 C.3     1  UNL1        0.0938
@<TRIPOS>BOND
     1    20    21    2
     2    21     1    1
     3     1     2   ar
     4     2     3   ar
     5     3     4   ar
     6     4     7    1
     7     7     8   ar
     8     8     9   ar
     9     9    16    1
    10    16    17    1
    11    16    18    1
    12    16    19    1
    13     9    10   ar
    14    10    11   ar
    15    11    12    1
    16    12    13    1
    17    13    14    1
    18    14    15    1
    19     4     5   ar
    20     5     6   ar
    21    21    22   am
    22    22    23    1
    23    23    24    1
    24    24    25    1
    25    25    26    1
    26     6     1   ar
    27    26    22    1
    28    11     7   ar
    29    15    10    1
@<TRIPOS>MOLECULE
*****
 26 29 0 0 0
SMALL
GASTEIGER

@<TRIPOS>ATOM
      1 C          65.5046   92.0336   13.2059 C.ar    1  UNL1        0.0537
      2 C          64.3392   91.4137   12.4935 C.ar    1  UNL1        0.0061
      3 C          63.8677   90.0428   12.8785 C.ar    1  UNL1        0.0193
      4 C          64.5616   89.2917   13.9759 C.ar    1  UNL1        0.0824
      5 C          65.7270   89.9117   14.6884 C.ar    1  UNL1        0.0193
      6 C          66.1985   91.2826   14.3034 C.ar    1  UNL1        0.0061
      7 N          64.0901   87.9208   14.3610 N.ar    1  UNL1       -0.2339
      8 N          64.1154   86.7020   13.4870 N.ar    1  UNL1       -0.1617
      9 C          63.5514   85.5559   14.2735 C.ar    1  UNL1        0.1720
     10 C          63.1776   86.0665   15.6335 C.ar    1  UNL1        0.0443
     11 C          63.5105   87.5281   15.6876 C.ar    1  UNL1        0.0628
     12 C          63.2430   88.3125   16.9378 C.3     1  UNL1        0.0777
     13 C          62.6425   87.6353   18.1339 C.3     1  UNL1        0.1489
     14 O          62.3096   86.1737   18.0799 O.3     1  UNL1       -0.3485
     15 C          62.5772   85.3893   16.8297 C.3     1  UNL1        0.1713
     16 C          63.3897   84.1467   13.7857 C.3     1  UNL1        0.4363
     17 F          63.2279   82.7375   13.2979 F       1  UNL1       -0.1644
     18 F          61.9026   84.2626   13.9441 F       1  UNL1       -0.1644
     19 F          64.8767   84.0309   13.6273 F       1  UNL1       -0.1644
     20 O          65.8879   94.5322   13.8061 O.2     1  UNL1       -0.2699
     21 C          65.9761   93.4046   12.8209 C.2     1  UNL1        0.2490
     22 N          66.5357   93.6478   11.4506 N.am    1  UNL1       -0.2761
     23 C          67.0437   94.9579   10.9254 C.3     1  UNL1        0.0938
     24 C          67.5076   94.7435    9.5152 C.3     1  UNL1        0.0233
     25 C          67.2862   93.3008    9.1687 C.3     1  UNL1        0.0233
     26 C          66.6856   92.6237   10.3648 C.3     1  UNL1        0.0938
@<TRIPOS>BOND
     1    20    21    2
     2    21     1    1
     3     1     2   ar
     4     2     3   ar
     5     3     4   ar
     6     4     7    1
     7     7     8   ar
     8     8     9   ar
     9     9    16    1
    10    16    17    1
    11    16    18    1
    12    16    19    1
    13     9    10   ar
    14    10    11   ar
    15    11    12    1
    16    12    13    1
    17    13    14    1
    18    14    15    1
    19     4     5   ar
    20     5     6   ar
    21    21    22   am
    22    22    23    1
    23    23    24    1
    24    24    25    1
    25    25    26    1
    26     6     1   ar
    27    26    22    1
    28    11     7   ar
    29    15    10    1
