@<TRIPOS>MOLECULE
*****
 22 24 0 0 0
SMALL
GASTEIGER

@<TRIPOS>ATOM
      1 C          66.0875   92.4108   11.8991 C.ar    1  UNL1       -0.0144
      2 C          64.7394   91.7557   11.8387 C.ar    1  UNL1        0.0051
      3 S          64.2889   91.4919   13.2449 S.2     1  UNL1       -0.0915
      4 C          65.3585   91.9839   14.1744 C.ar    1  UNL1        0.0288
      5 C          65.4639   91.9881   15.6706 C.ar    1  UNL1        0.0065
      6 C          66.6808   92.5602   16.3351 C.ar    1  UNL1        0.0005
      7 C          67.7924   93.1281   15.5034 C.ar    1  UNL1        0.0000
      8 C          67.6871   93.1239   14.0071 C.ar    1  UNL1        0.0002
      9 C          66.4701   92.5518   13.3426 C.ar    1  UNL1        0.0025
     10 C          67.9805   91.9493   10.1804 C.3     1  UNL1        0.0110
     11 C          66.9088   92.8480   10.7225 C.3     1  UNL1        0.0627
     12 C          66.6585   94.1839   10.0881 C.ar    1  UNL1        0.0627
     13 C          67.5278   94.6527    8.9590 C.ar    1  UNL1        0.0151
     14 C          67.2775   95.9886    8.3245 C.ar    1  UNL1        0.0028
     15 C          66.1579   96.8558    8.8190 C.ar    1  UNL1        0.0207
     16 C          65.2887   96.3871    9.9480 C.ar    1  UNL1        0.0985
     17 N          65.5389   95.0512   10.5825 N.ar    1  UNL1       -0.2478
     18 C          63.9760   91.4230   10.5911 C.3     1  UNL1        0.0499
     19 C          62.5263   91.0472   10.6767 C.3     1  UNL1        0.0774
     20 N          62.1178   89.6072   10.5793 N.3     1  UNL1       -0.2700
     21 C          62.6672   88.6044   11.5502 C.3     1  UNL1        0.0897
     22 C          61.1599   89.1700    9.5110 C.3     1  UNL1        0.0897
@<TRIPOS>BOND
     1    10    11    1
     2    11    12    1
     3    12    13   ar
     4    13    14   ar
     5    14    15   ar
     6    15    16   ar
     7    16    17   ar
     8    11     1    1
     9     1     2   ar
    10     2    18    1
    11    18    19    1
    12    19    20    1
    13    20    21    1
    14    20    22    1
    15     2     3   ar
    16     3     4   ar
    17     4     5   ar
    18     5     6   ar
    19     6     7   ar
    20     7     8   ar
    21     8     9   ar
    22    17    12   ar
    23     9     1   ar
    24     9     4   ar
@<TRIPOS>MOLECULE
*****
 22 24 0 0 0
SMALL
GASTEIGER

@<TRIPOS>ATOM
      1 C          62.9787   85.2773   12.0044 C.ar    1  UNL1       -0.0144
      2 C          63.5109   86.0021   13.2050 C.ar    1  UNL1        0.0051
      3 S          63.8356   84.9822   14.2558 S.2     1  UNL1       -0.0915
      4 C          63.5042   83.6270   13.7047 C.ar    1  UNL1        0.0288
      5 C          63.6162   82.2506   14.2901 C.ar    1  UNL1        0.0065
      6 C          63.1985   81.0565   13.4840 C.ar    1  UNL1        0.0005
      7 C          62.6689   81.2390   12.0925 C.ar    1  UNL1        0.0000
      8 C          62.5569   82.6154   11.5071 C.ar    1  UNL1        0.0002
      9 C          62.9745   83.8095   12.3132 C.ar    1  UNL1        0.0025
     10 C          62.8080   85.2300    9.4123 C.3     1  UNL1        0.0110
     11 C          62.5295   85.9094   10.7204 C.3     1  UNL1        0.0627
     12 C          61.8019   87.2209   10.7443 C.ar    1  UNL1        0.0627
     13 C          62.3548   88.3991    9.9983 C.ar    1  UNL1        0.0151
     14 C          61.6272   89.7106   10.0222 C.ar    1  UNL1        0.0028
     15 C          60.3467   89.8439   10.7920 C.ar    1  UNL1        0.0207
     16 C          59.7939   88.6658   11.5379 C.ar    1  UNL1        0.0985
     17 N          60.5215   87.3543   11.5141 N.ar    1  UNL1       -0.2478
     18 C          63.6873   87.4863   13.3324 C.3     1  UNL1        0.0499
     19 C          64.2877   88.0659   14.5788 C.3     1  UNL1        0.0774
     20 N          63.6650   89.2697   15.2215 N.3     1  UNL1       -0.2700
     21 C          63.1109   89.1752   16.6123 C.3     1  UNL1        0.0897
     22 C          63.5963   90.5681   14.4735 C.3     1  UNL1        0.0897
@<TRIPOS>BOND
     1    10    11    1
     2    11    12    1
     3    12    13   ar
     4    13    14   ar
     5    14    15   ar
     6    15    16   ar
     7    16    17   ar
     8    11     1    1
     9     1     2   ar
    10     2    18    1
    11    18    19    1
    12    19    20    1
    13    20    21    1
    14    20    22    1
    15     2     3   ar
    16     3     4   ar
    17     4     5   ar
    18     5     6   ar
    19     6     7   ar
    20     7     8   ar
    21     8     9   ar
    22    17    12   ar
    23     9     1   ar
    24     9     4   ar
@<TRIPOS>MOLECULE
*****
 22 24 0 0 0
SMALL
GASTEIGER

@<TRIPOS>ATOM
      1 C          61.4295   88.1692   10.8394 C.ar    1  UNL1       -0.0144
      2 C          62.2020   86.9365   11.2051 C.ar    1  UNL1        0.0051
      3 S          61.9637   85.9073   10.1402 S.2     1  UNL1       -0.0915
      4 C          61.0440   86.5039    9.1164 C.ar    1  UNL1        0.0288
      5 C          60.4645   85.9549    7.8465 C.ar    1  UNL1        0.0065
      6 C          59.5548   86.8038    7.0087 C.ar    1  UNL1        0.0005
      7 C          59.2247   88.2018    7.4409 C.ar    1  UNL1        0.0000
      8 C          59.8042   88.7508    8.7108 C.ar    1  UNL1        0.0002
      9 C          60.7138   87.9019    9.5485 C.ar    1  UNL1        0.0025
     10 C          60.1139   89.8522   12.3182 C.3     1  UNL1        0.0110
     11 C          61.3812   89.4452   11.6265 C.3     1  UNL1        0.0627
     12 C          62.6000   90.3142   11.7218 C.ar    1  UNL1        0.0627
     13 C          63.1043   91.0348   10.5067 C.ar    1  UNL1        0.0151
     14 C          64.3232   91.9039   10.6019 C.ar    1  UNL1        0.0028
     15 C          65.0377   92.0524   11.9125 C.ar    1  UNL1        0.0207
     16 C          64.5334   91.3319   13.1275 C.ar    1  UNL1        0.0985
     17 N          63.3146   90.4628   13.0323 N.ar    1  UNL1       -0.2478
     18 C          63.0617   86.7633   12.4220 C.3     1  UNL1        0.0499
     19 C          63.3073   85.3919   12.9778 C.3     1  UNL1        0.0774
     20 N          63.2796   85.1676   14.4607 N.3     1  UNL1       -0.2700
     21 C          64.1801   85.9652   15.3568 C.3     1  UNL1        0.0897
     22 C          62.3513   84.1459   15.0474 C.3     1  UNL1        0.0897
@<TRIPOS>BOND
     1    10    11    1
     2    11    12    1
     3    12    13   ar
     4    13    14   ar
     5    14    15   ar
     6    15    16   ar
     7    16    17   ar
     8    11     1    1
     9     1     2   ar
    10     2    18    1
    11    18    19    1
    12    19    20    1
    13    20    21    1
    14    20    22    1
    15     2     3   ar
    16     3     4   ar
    17     4     5   ar
    18     5     6   ar
    19     6     7   ar
    20     7     8   ar
    21     8     9   ar
    22    17    12   ar
    23     9     1   ar
    24     9     4   ar
@<TRIPOS>MOLECULE
*****
 22 24 0 0 0
SMALL
GASTEIGER

@<TRIPOS>ATOM
      1 C          63.7347   90.5145   13.7873 C.ar    1  UNL1       -0.0144
      2 C          62.7019   90.2871   12.7236 C.ar    1  UNL1        0.0051
      3 S          63.1778   90.9517   11.4658 S.2     1  UNL1       -0.0915
      4 C          64.5048   91.5897   11.7522 C.ar    1  UNL1        0.0288
      5 C          65.4441   92.3819   10.8919 C.ar    1  UNL1        0.0065
      6 C          66.7276   92.9038   11.4664 C.ar    1  UNL1        0.0005
      7 C          67.0719   92.6336   12.9012 C.ar    1  UNL1        0.0000
      8 C          66.1325   91.8415   13.7614 C.ar    1  UNL1        0.0002
      9 C          64.8490   91.3196   13.1870 C.ar    1  UNL1        0.0025
     10 C          63.5561   91.0038   16.3327 C.3     1  UNL1        0.0110
     11 C          63.6655   90.0231   15.2028 C.3     1  UNL1        0.0627
     12 C          63.7056   88.5512   15.4886 C.ar    1  UNL1        0.0627
     13 C          64.4280   87.6254   14.5553 C.ar    1  UNL1        0.0151
     14 C          64.4682   86.1534   14.8410 C.ar    1  UNL1        0.0028
     15 C          63.7859   85.6072   16.0602 C.ar    1  UNL1        0.0207
     16 C          63.0635   86.5330   16.9934 C.ar    1  UNL1        0.0985
     17 N          63.0233   88.0050   16.7077 N.ar    1  UNL1       -0.2478
     18 C          61.4184   89.5285   12.8886 C.3     1  UNL1        0.0499
     19 C          60.3806   89.5658   11.8063 C.3     1  UNL1        0.0774
     20 N          60.4918   88.6437   10.6284 N.3     1  UNL1       -0.2700
     21 C          60.7435   87.1805   10.8426 C.3     1  UNL1        0.0897
     22 C          60.3512   89.1847    9.2365 C.3     1  UNL1        0.0897
@<TRIPOS>BOND
     1    10    11    1
     2    11    12    1
     3    12    13   ar
     4    13    14   ar
     5    14    15   ar
     6    15    16   ar
     7    16    17   ar
     8    11     1    1
     9     1     2   ar
    10     2    18    1
    11    18    19    1
    12    19    20    1
    13    20    21    1
    14    20    22    1
    15     2     3   ar
    16     3     4   ar
    17     4     5   ar
    18     5     6   ar
    19     6     7   ar
    20     7     8   ar
    21     8     9   ar
    22    17    12   ar
    23     9     1   ar
    24     9     4   ar
@<TRIPOS>MOLECULE
*****
 22 24 0 0 0
SMALL
GASTEIGER

@<TRIPOS>ATOM
      1 C          62.1965   86.2931   10.5586 C.ar    1  UNL1       -0.0144
      2 C          62.5045   87.4949   11.4017 C.ar    1  UNL1        0.0051
      3 S          61.6747   88.6388   10.8988 S.2     1  UNL1       -0.0915
      4 C          60.8538   88.1441    9.7449 C.ar    1  UNL1        0.0288
      5 C          59.8544   88.8263    8.8585 C.ar    1  UNL1        0.0065
      6 C          59.1775   88.0588    7.7619 C.ar    1  UNL1        0.0005
      7 C          59.5000   86.6090    7.5516 C.ar    1  UNL1        0.0000
      8 C          60.4994   85.9268    8.4380 C.ar    1  UNL1        0.0002
      9 C          61.1763   86.6943    9.5346 C.ar    1  UNL1        0.0025
     10 C          63.6062   84.3355    9.5939 C.3     1  UNL1        0.0110
     11 C          62.8022   84.9295   10.7124 C.3     1  UNL1        0.0627
     12 C          62.6041   84.1599   11.9845 C.ar    1  UNL1        0.0627
     13 C          62.5600   82.6608   11.9550 C.ar    1  UNL1        0.0151
     14 C          62.3619   81.8911   13.2271 C.ar    1  UNL1        0.0028
     15 C          62.2079   82.6206   14.5288 C.ar    1  UNL1        0.0207
     16 C          62.2520   84.1196   14.5582 C.ar    1  UNL1        0.0985
     17 N          62.4501   84.8893   13.2861 N.ar    1  UNL1       -0.2478
     18 C          63.4723   87.5442   12.5466 C.3     1  UNL1        0.0499
     19 C          63.7030   88.8328   13.2788 C.3     1  UNL1        0.0774
     20 N          63.7545   88.8448   14.7779 N.3     1  UNL1       -0.2700
     21 C          63.9297   87.5603   15.5326 C.3     1  UNL1        0.0897
     22 C          63.6310   90.1412   15.5222 C.3     1  UNL1        0.0897
@<TRIPOS>BOND
     1    10    11    1
     2    11    12    1
     3    12    13   ar
     4    13    14   ar
     5    14    15   ar
     6    15    16   ar
     7    16    17   ar
     8    11     1    1
     9     1     2   ar
    10     2    18    1
    11    18    19    1
    12    19    20    1
    13    20    21    1
    14    20    22    1
    15     2     3   ar
    16     3     4   ar
    17     4     5   ar
    18     5     6   ar
    19     6     7   ar
    20     7     8   ar
    21     8     9   ar
    22    17    12   ar
    23     9     1   ar
    24     9     4   ar
@<TRIPOS>MOLECULE
*****
 22 24 0 0 0
SMALL
GASTEIGER

@<TRIPOS>ATOM
      1 C          64.7011   91.7057   12.5257 C.ar    1  UNL1       -0.0144
      2 C          63.8238   90.6856   13.1888 C.ar    1  UNL1        0.0051
      3 S          64.1900   90.6341   14.6425 S.2     1  UNL1       -0.0915
      4 C          65.2936   91.6224   14.8779 C.ar    1  UNL1        0.0288
      5 C          66.0517   92.0047   16.1144 C.ar    1  UNL1        0.0065
      6 C          67.1256   93.0495   16.0427 C.ar    1  UNL1        0.0005
      7 C          67.4415   93.7118   14.7344 C.ar    1  UNL1        0.0000
      8 C          66.6834   93.3294   13.4979 C.ar    1  UNL1        0.0002
      9 C          65.6095   92.2847   13.5696 C.ar    1  UNL1        0.0025
     10 C          63.5607   91.5961   10.1938 C.3     1  UNL1        0.0110
     11 C          64.6746   92.0811   11.0737 C.3     1  UNL1        0.0627
     12 C          65.7620   92.9413   10.5014 C.ar    1  UNL1        0.0627
     13 C          67.0404   92.3169   10.0259 C.ar    1  UNL1        0.0151
     14 C          68.1278   93.1771    9.4536 C.ar    1  UNL1        0.0028
     15 C          67.9369   94.6618    9.3568 C.ar    1  UNL1        0.0207
     16 C          66.6586   95.2862    9.8323 C.ar    1  UNL1        0.0985
     17 N          65.5711   94.4260   10.4046 N.ar    1  UNL1       -0.2478
     18 C          62.7661   89.8616   12.5163 C.3     1  UNL1        0.0499
     19 C          63.0637   88.4504   12.1044 C.3     1  UNL1        0.0774
     20 N          61.9886   87.6072   11.4854 N.3     1  UNL1       -0.2700
     21 C          60.7216   88.2458   10.9986 C.3     1  UNL1        0.0897
     22 C          62.1805   86.1254   11.3531 C.3     1  UNL1        0.0897
@<TRIPOS>BOND
     1    10    11    1
     2    11    12    1
     3    12    13   ar
     4    13    14   ar
     5    14    15   ar
     6    15    16   ar
     7    16    17   ar
     8    11     1    1
     9     1     2   ar
    10     2    18    1
    11    18    19    1
    12    19    20    1
    13    20    21    1
    14    20    22    1
    15     2     3   ar
    16     3     4   ar
    17     4     5   ar
    18     5     6   ar
    19     6     7   ar
    20     7     8   ar
    21     8     9   ar
    22    17    12   ar
    23     9     1   ar
    24     9     4   ar
@<TRIPOS>MOLECULE
*****
 22 24 0 0 0
SMALL
GASTEIGER

@<TRIPOS>ATOM
      1 C          63.3581   85.9410   12.8265 C.ar    1  UNL1       -0.0144
      2 C          63.8335   85.2031   14.0429 C.ar    1  UNL1        0.0051
      3 S          64.3307   86.2139   15.0333 S.2     1  UNL1       -0.0915
      4 C          64.1625   87.5765   14.4291 C.ar    1  UNL1        0.0288
      5 C          64.4791   88.9491   14.9447 C.ar    1  UNL1        0.0065
      6 C          64.1946   90.1529   14.0963 C.ar    1  UNL1        0.0005
      7 C          63.5934   89.9842   12.7324 C.ar    1  UNL1        0.0000
      8 C          63.2769   88.6117   12.2169 C.ar    1  UNL1        0.0002
      9 C          63.5614   87.4078   13.0652 C.ar    1  UNL1        0.0025
     10 C          63.1678   83.9251   11.1985 C.3     1  UNL1        0.0110
     11 C          62.7807   85.3208   11.5888 C.3     1  UNL1        0.0627
     12 C          61.8162   86.0963   10.7413 C.ar    1  UNL1        0.0627
     13 C          61.8534   85.9611    9.2478 C.ar    1  UNL1        0.0151
     14 C          60.8889   86.7365    8.4002 C.ar    1  UNL1        0.0028
     15 C          59.8871   87.6472    9.0461 C.ar    1  UNL1        0.0207
     16 C          59.8499   87.7824   10.5395 C.ar    1  UNL1        0.0985
     17 N          60.8144   87.0070   11.3871 N.ar    1  UNL1       -0.2478
     18 C          63.8150   83.7155   14.2350 C.3     1  UNL1        0.0499
     19 C          62.5298   83.0185   14.5697 C.3     1  UNL1        0.0774
     20 N          62.2834   81.6228   14.0784 N.3     1  UNL1       -0.2700
     21 C          60.9027   81.0395   14.1377 C.3     1  UNL1        0.0897
     22 C          63.4178   80.8104   13.5277 C.3     1  UNL1        0.0897
@<TRIPOS>BOND
     1    10    11    1
     2    11    12    1
     3    12    13   ar
     4    13    14   ar
     5    14    15   ar
     6    15    16   ar
     7    16    17   ar
     8    11     1    1
     9     1     2   ar
    10     2    18    1
    11    18    19    1
    12    19    20    1
    13    20    21    1
    14    20    22    1
    15     2     3   ar
    16     3     4   ar
    17     4     5   ar
    18     5     6   ar
    19     6     7   ar
    20     7     8   ar
    21     8     9   ar
    22    17    12   ar
    23     9     1   ar
    24     9     4   ar
@<TRIPOS>MOLECULE
*****
 22 24 0 0 0
SMALL
GASTEIGER

@<TRIPOS>ATOM
      1 C          63.6997   89.1143   13.5419 C.ar    1  UNL1       -0.0144
      2 C          63.9139   87.6441   13.7482 C.ar    1  UNL1        0.0051
      3 S          63.2965   86.9187   12.5895 S.2     1  UNL1       -0.0915
      4 C          62.7008   87.9406   11.6671 C.ar    1  UNL1        0.0288
      5 C          61.9636   87.8108   10.3672 C.ar    1  UNL1        0.0065
      6 C          61.4757   89.0380    9.6560 C.ar    1  UNL1        0.0005
      7 C          61.7250   90.3950   10.2446 C.ar    1  UNL1        0.0000
      8 C          62.4621   90.5248   11.5445 C.ar    1  UNL1        0.0002
      9 C          62.9500   89.2976   12.2557 C.ar    1  UNL1        0.0025
     10 C          63.5583   90.3354   15.8309 C.3     1  UNL1        0.0110
     11 C          64.1554   90.2091   14.4605 C.3     1  UNL1        0.0627
     12 C          65.2079   91.1776   14.0090 C.ar    1  UNL1        0.0627
     13 C          66.5942   91.0971   14.5763 C.ar    1  UNL1        0.0151
     14 C          67.6469   92.0656   14.1247 C.ar    1  UNL1        0.0028
     15 C          67.3132   93.1147   13.1058 C.ar    1  UNL1        0.0207
     16 C          65.9270   93.1952   12.5385 C.ar    1  UNL1        0.0985
     17 N          64.8743   92.2267   12.9901 N.ar    1  UNL1       -0.2478
     18 C          64.6212   87.0105   14.9094 C.3     1  UNL1        0.0499
     19 C          64.3026   85.5982   15.3017 C.3     1  UNL1        0.0774
     20 N          63.0045   85.2841   15.9846 N.3     1  UNL1       -0.2700
     21 C          62.5931   86.0543   17.2042 C.3     1  UNL1        0.0897
     22 C          62.1178   84.1999   15.4478 C.3     1  UNL1        0.0897
@<TRIPOS>BOND
     1    10    11    1
     2    11    12    1
     3    12    13   ar
     4    13    14   ar
     5    14    15   ar
     6    15    16   ar
     7    16    17   ar
     8    11     1    1
     9     1     2   ar
    10     2    18    1
    11    18    19    1
    12    19    20    1
    13    20    21    1
    14    20    22    1
    15     2     3   ar
    16     3     4   ar
    17     4     5   ar
    18     5     6   ar
    19     6     7   ar
    20     7     8   ar
    21     8     9   ar
    22    17    12   ar
    23     9     1   ar
    24     9     4   ar
@<TRIPOS>MOLECULE
*****
 22 24 0 0 0
SMALL
GASTEIGER

@<TRIPOS>ATOM
      1 C          63.8351   84.8789   13.4305 C.ar    1  UNL1       -0.0144
      2 C          63.1004   85.5524   12.3096 C.ar    1  UNL1        0.0051
      3 S          62.3927   84.4937   11.5170 S.2     1  UNL1       -0.0915
      4 C          62.6900   83.1658   12.1481 C.ar    1  UNL1        0.0288
      5 C          62.2642   81.7706   11.7986 C.ar    1  UNL1        0.0065
      6 C          62.7298   80.6135   12.6318 C.ar    1  UNL1        0.0005
      7 C          63.6213   80.8516   13.8145 C.ar    1  UNL1        0.0000
      8 C          64.0471   82.2467   14.1639 C.ar    1  UNL1        0.0002
      9 C          63.5815   83.4038   13.3307 C.ar    1  UNL1        0.0025
     10 C          66.0998   85.1374   14.6774 C.3     1  UNL1        0.0110
     11 C          64.6758   85.5606   14.4690 C.3     1  UNL1        0.0627
     12 C          64.0927   86.6655   15.2991 C.ar    1  UNL1        0.0627
     13 C          63.3930   86.3467   16.5871 C.ar    1  UNL1        0.0151
     14 C          62.8098   87.4516   17.4173 C.ar    1  UNL1        0.0028
     15 C          62.9264   88.8753   16.9595 C.ar    1  UNL1        0.0207
     16 C          63.6260   89.1940   15.6715 C.ar    1  UNL1        0.0985
     17 N          64.2091   88.0892   14.8413 N.ar    1  UNL1       -0.2478
     18 C          63.0774   87.0260   12.0303 C.3     1  UNL1        0.0499
     19 C          62.0631   87.5940   11.0824 C.3     1  UNL1        0.0774
     20 N          61.2134   88.7569   11.5015 N.3     1  UNL1       -0.2700
     21 C          59.7180   88.6435   11.4690 C.3     1  UNL1        0.0897
     22 C          61.8592   90.0333   11.9531 C.3     1  UNL1        0.0897
@<TRIPOS>BOND
     1    10    11    1
     2    11    12    1
     3    12    13   ar
     4    13    14   ar
     5    14    15   ar
     6    15    16   ar
     7    16    17   ar
     8    11     1    1
     9     1     2   ar
    10     2    18    1
    11    18    19    1
    12    19    20    1
    13    20    21    1
    14    20    22    1
    15     2     3   ar
    16     3     4   ar
    17     4     5   ar
    18     5     6   ar
    19     6     7   ar
    20     7     8   ar
    21     8     9   ar
    22    17    12   ar
    23     9     1   ar
    24     9     4   ar
