@<TRIPOS>MOLECULE
*****
 45 50 0 0 0
SMALL
GASTEIGER

@<TRIPOS>ATOM
      1 C          61.3624   87.4009   10.2114 C.2     1  UNL1        0.0441
      2 C          61.6079   88.8803   10.2461 C.2     1  UNL1       -0.0190
      3 C          60.8950   89.7817    9.2822 C.3     1  UNL1        0.0445
      4 C          59.9364   89.2037    8.2835 C.3     1  UNL1        0.0887
      5 C          58.9779   88.6258    7.2850 C.3     1  UNL1        0.1581
      6 O          58.7324   87.1465    7.2503 O.3     1  UNL1       -0.3506
      7 C          59.4453   86.2451    8.2142 C.3     1  UNL1        0.1624
      8 C          60.4039   86.8230    9.2128 C.3     1  UNL1        0.1110
      9 N          60.6494   88.3023    9.2475 N.3     1  UNL1       -0.2917
     10 H          61.6485   88.4386    9.0941 H       1  UNL1        0.1236
     11 C          62.5665   89.4583   11.2447 C.ar    1  UNL1       -0.0041
     12 C          63.0330   88.6283   12.4038 C.ar    1  UNL1       -0.0006
     13 C          63.9915   89.2063   13.4024 C.ar    1  UNL1       -0.0043
     14 C          64.4835   90.6142   13.2418 C.ar    1  UNL1       -0.0221
     15 C          64.0170   91.4441   12.0827 C.ar    1  UNL1       -0.0043
     16 C          63.0585   90.8662   11.0841 C.ar    1  UNL1       -0.0006
     17 C          65.4420   91.1921   14.2404 C.3     1  UNL1        0.0302
     18 C          66.7611   91.7410   13.7833 C.3     1  UNL1        0.0520
     19 C          66.9006   93.2036   13.4810 C.3     1  UNL1        0.2059
     20 O          65.9471   93.8676   12.5323 O.3     1  UNL1       -0.4723
     21 C          66.4642   94.5259   11.2876 C.ar    1  UNL1        0.1784
     22 C          66.3896   96.0169   11.1413 C.ar    1  UNL1        0.1748
     23 F          65.7979   96.8496   12.2397 F       1  UNL1       -0.2009
     24 C          66.9066   96.6752    9.8966 C.ar    1  UNL1        0.0351
     25 C          67.4983   95.8425    8.7981 C.ar    1  UNL1        0.0330
     26 C          67.5729   94.3515    8.9444 C.ar    1  UNL1        0.1537
     27 F          68.1646   93.5188    7.8460 F       1  UNL1       -0.2032
     28 C          67.0558   93.6932   10.1892 C.ar    1  UNL1        0.1211
     29 CL         67.1304   92.2023   10.3355 Cl      1  UNL1       -0.0766
     30 N          62.9618   85.4038   10.6621 N.am    1  UNL1       -0.2738
     31 C          62.0753   86.4995   11.1753 C.2     1  UNL1        0.2463
     32 O          61.9018   86.6940   12.6526 O.2     1  UNL1       -0.2702
     33 C          63.1352   85.2094    9.1849 C.3     1  UNL1        0.0760
     34 C          63.7432   85.6346    7.8813 C.3     1  UNL1        0.0215
     35 C          62.8277   84.4475    7.9300 C.3     1  UNL1        0.0215
     36 C          63.6747   84.5024   11.6260 C.3     1  UNL1        0.1201
     37 C          62.1783   81.1235   13.0731 C.ar    1  UNL1        0.1345
     38 C          62.4906   80.1735   11.9551 C.ar    1  UNL1        0.0366
     39 C          63.1976   80.6664   10.7274 C.ar    1  UNL1        0.0028
     40 C          63.5923   82.1093   10.6177 C.ar    1  UNL1       -0.0027
     41 C          63.2800   83.0594   11.7357 C.ar    1  UNL1       -0.0034
     42 C          62.5730   82.5665   12.9634 C.ar    1  UNL1        0.0098
     43 C          62.2608   83.5165   14.0814 C.3     1  UNL1        0.0339
     44 C          60.0094   80.3002   14.2426 C.3     1  UNL1        0.2525
     45 O          61.4713   80.6306   14.3008 O.3     1  UNL1       -0.4718
@<TRIPOS>BOND
     1    44    45    1
     2    45    37    1
     3    37    38   ar
     4    38    39   ar
     5    39    40   ar
     6    40    41   ar
     7    41    36    1
     8    36    30    1
     9    30    31   am
    10    31    32    2
    11    31     1    1
    12     1     2    2
    13     2    11    1
    14    11    12   ar
    15    12    13   ar
    16    13    14   ar
    17    14    17    1
    18    17    18    1
    19    18    19    1
    20    19    20    1
    21    20    21    1
    22    21    22   ar
    23    22    23    1
    24    22    24   ar
    25    24    25   ar
    26    25    26   ar
    27    26    27    1
    28    26    28   ar
    29    28    29    1
    30    14    15   ar
    31    15    16   ar
    32     2     3    1
    33     4     3    1
    34     4     5    1
    35     5     6    1
    36     6     7    1
    37     8     7    1
    38     8     9    1
    39    30    33    1
    40    33    34    1
    41    34    35    1
    42    41    42   ar
    43    42    43    1
    44    42    37   ar
    45     8     1    1
    46    35    33    1
    47    16    11   ar
    48     9     4    1
    49    28    21   ar
    50     9    10    1
@<TRIPOS>MOLECULE
*****
 45 50 0 0 0
SMALL
GASTEIGER

@<TRIPOS>ATOM
      1 C          64.6602   91.4454   13.7854 C.2     1  UNL1        0.0441
      2 C          65.1414   90.6867   14.9866 C.2     1  UNL1       -0.0190
      3 C          66.2999   91.2049   15.7863 C.3     1  UNL1        0.0445
      4 C          66.9771   92.4817   15.3847 C.3     1  UNL1        0.0887
      5 C          67.6543   93.7584   14.9831 C.3     1  UNL1        0.1581
      6 O          67.1730   94.5170   13.7819 O.3     1  UNL1       -0.3506
      7 C          66.0146   93.9988   12.9823 C.3     1  UNL1        0.1624
      8 C          65.3374   92.7221   13.3838 C.3     1  UNL1        0.1110
      9 N          65.8186   91.9635   14.5850 N.3     1  UNL1       -0.2917
     10 H          66.0781   91.0320   14.2605 H       1  UNL1        0.1236
     11 C          64.4642   89.4100   15.3882 C.ar    1  UNL1       -0.0041
     12 C          64.7571   88.1400   14.6457 C.ar    1  UNL1       -0.0006
     13 C          64.0798   86.8632   15.0473 C.ar    1  UNL1       -0.0043
     14 C          63.1098   86.8565   16.1914 C.ar    1  UNL1       -0.0221
     15 C          62.8169   88.1265   16.9339 C.ar    1  UNL1       -0.0043
     16 C          63.4941   89.4032   16.5323 C.ar    1  UNL1       -0.0006
     17 C          62.4326   85.5797   16.5929 C.3     1  UNL1        0.0302
     18 C          63.0765   84.2603   16.2854 C.3     1  UNL1        0.0520
     19 C          62.4743   83.3546   15.2523 C.3     1  UNL1        0.2059
     20 O          63.3066   82.2769   14.6231 O.3     1  UNL1       -0.4723
     21 C          63.5460   82.2825   13.1424 C.ar    1  UNL1        0.1784
     22 C          64.2966   83.4159   12.5082 C.ar    1  UNL1        0.1748
     23 F          64.8078   84.5437   13.3549 F       1  UNL1       -0.2009
     24 C          64.5360   83.4215   11.0275 C.ar    1  UNL1        0.0351
     25 C          64.0249   82.2937   10.1808 C.ar    1  UNL1        0.0330
     26 C          63.2743   81.1603   10.8149 C.ar    1  UNL1        0.1537
     27 F          62.7631   80.0325    9.9683 F       1  UNL1       -0.2032
     28 C          63.0348   81.1548   12.2957 C.ar    1  UNL1        0.1211
     29 CL         62.2842   80.0214   12.9299 Cl      1  UNL1       -0.0766
     30 N          63.4668   91.1273   11.4996 N.am    1  UNL1       -0.2738
     31 C          63.5017   90.9272   12.9858 C.2     1  UNL1        0.2463
     32 O          62.3780   90.2088   13.6724 O.2     1  UNL1       -0.2702
     33 C          64.5905   91.8456   10.8131 C.3     1  UNL1        0.0760
     34 C          65.1087   93.0480   10.0811 C.3     1  UNL1        0.0215
     35 C          66.0185   91.8875   10.3560 C.3     1  UNL1        0.0215
     36 C          62.3084   90.6092   10.7000 C.3     1  UNL1        0.1201
     37 C          60.7317   87.1254    9.6381 C.ar    1  UNL1        0.1345
     38 C          61.4911   86.1873   10.5288 C.ar    1  UNL1        0.0366
     39 C          62.5229   86.7232   11.4766 C.ar    1  UNL1        0.0028
     40 C          62.7953   88.1971   11.5336 C.ar    1  UNL1       -0.0027
     41 C          62.0359   89.1352   10.6429 C.ar    1  UNL1       -0.0034
     42 C          61.0041   88.5994    9.6952 C.ar    1  UNL1        0.0098
     43 C          60.2447   89.5374    8.8045 C.3     1  UNL1        0.0339
     44 C          60.1251   85.8147    7.4785 C.3     1  UNL1        0.2525
     45 O          59.6999   86.5895    8.6904 O.3     1  UNL1       -0.4718
@<TRIPOS>BOND
     1    44    45    1
     2    45    37    1
     3    37    38   ar
     4    38    39   ar
     5    39    40   ar
     6    40    41   ar
     7    41    36    1
     8    36    30    1
     9    30    31   am
    10    31    32    2
    11    31     1    1
    12     1     2    2
    13     2    11    1
    14    11    12   ar
    15    12    13   ar
    16    13    14   ar
    17    14    17    1
    18    17    18    1
    19    18    19    1
    20    19    20    1
    21    20    21    1
    22    21    22   ar
    23    22    23    1
    24    22    24   ar
    25    24    25   ar
    26    25    26   ar
    27    26    27    1
    28    26    28   ar
    29    28    29    1
    30    14    15   ar
    31    15    16   ar
    32     2     3    1
    33     4     3    1
    34     4     5    1
    35     5     6    1
    36     6     7    1
    37     8     7    1
    38     8     9    1
    39    30    33    1
    40    33    34    1
    41    34    35    1
    42    41    42   ar
    43    42    43    1
    44    42    37   ar
    45     8     1    1
    46    35    33    1
    47    16    11   ar
    48     9     4    1
    49    28    21   ar
    50     9    10    1
@<TRIPOS>MOLECULE
*****
 45 50 0 0 0
SMALL
GASTEIGER

@<TRIPOS>ATOM
      1 C          63.2402   87.0320   12.8711 C.2     1  UNL1        0.0441
      2 C          62.3821   86.1103   12.0560 C.2     1  UNL1       -0.0190
      3 C          62.2822   84.6591   12.4220 C.3     1  UNL1        0.0445
      4 C          63.0403   84.1295   13.6030 C.3     1  UNL1        0.0887
      5 C          63.7984   83.6000   14.7840 C.3     1  UNL1        0.1581
      6 O          64.6564   84.5216   15.5991 O.3     1  UNL1       -0.3506
      7 C          64.7564   85.9728   15.2331 C.3     1  UNL1        0.1624
      8 C          63.9983   86.5024   14.0521 C.3     1  UNL1        0.1110
      9 N          63.1402   85.5808   13.2370 N.3     1  UNL1       -0.2917
     10 H          63.4923   85.6196   12.2805 H       1  UNL1        0.1236
     11 C          61.6240   86.6399   10.8750 C.ar    1  UNL1       -0.0041
     12 C          61.9568   86.1596    9.4934 C.ar    1  UNL1       -0.0006
     13 C          61.1986   86.6893    8.3124 C.ar    1  UNL1       -0.0043
     14 C          60.1078   87.6991    8.5129 C.ar    1  UNL1       -0.0221
     15 C          59.7751   88.1794    9.8944 C.ar    1  UNL1       -0.0043
     16 C          60.5331   87.6498   11.0754 C.ar    1  UNL1       -0.0006
     17 C          59.3497   88.2287    7.3319 C.3     1  UNL1        0.0302
     18 C          59.4263   89.6857    6.9835 C.3     1  UNL1        0.0520
     19 C          59.6960   90.1053    5.5688 C.3     1  UNL1        0.2059
     20 O          60.9374   90.8805    5.2402 O.3     1  UNL1       -0.4723
     21 C          60.9865   91.7293    4.0045 C.ar    1  UNL1        0.1784
     22 C          59.8039   92.5704    3.6249 C.ar    1  UNL1        0.1748
     23 F          58.5722   92.5626    4.4809 F       1  UNL1       -0.2009
     24 C          59.8529   93.4192    2.3892 C.ar    1  UNL1        0.0351
     25 C          61.0846   93.4271    1.5330 C.ar    1  UNL1        0.0330
     26 C          62.2672   92.5860    1.9126 C.ar    1  UNL1        0.1537
     27 F          63.4989   92.5938    1.0565 F       1  UNL1       -0.2032
     28 C          62.2181   91.7371    3.1484 C.ar    1  UNL1        0.1211
     29 CL         63.4007   90.8961    3.5280 Cl      1  UNL1       -0.0766
     30 N          63.2577   89.5334   13.5729 N.am    1  UNL1       -0.2738
     31 C          63.3402   88.4832   12.5051 C.2     1  UNL1        0.2463
     32 O          63.5226   88.8842   11.0712 O.2     1  UNL1       -0.2702
     33 C          63.0753   89.1324   15.0067 C.3     1  UNL1        0.0760
     34 C          62.2738   88.4430   16.0709 C.3     1  UNL1        0.0215
     35 C          63.5607   89.1270   16.4259 C.3     1  UNL1        0.0215
     36 C          63.3576   90.9846   13.2069 C.3     1  UNL1        0.1201
     37 C          66.6011   93.0357   12.1952 C.ar    1  UNL1        0.1345
     38 C          67.3089   93.1159   13.5153 C.ar    1  UNL1        0.0366
     39 C          66.6997   92.4857   14.7325 C.ar    1  UNL1        0.0028
     40 C          65.3826   91.7753   14.6297 C.ar    1  UNL1       -0.0027
     41 C          64.6747   91.6950   13.3097 C.ar    1  UNL1       -0.0034
     42 C          65.2840   92.3252   12.0924 C.ar    1  UNL1        0.0098
     43 C          64.5762   92.2450   10.7724 C.3     1  UNL1        0.0339
     44 C          66.7866   95.0406   10.5534 C.3     1  UNL1        0.2525
     45 O          67.2104   93.6658   10.9780 O.3     1  UNL1       -0.4718
@<TRIPOS>BOND
     1    44    45    1
     2    45    37    1
     3    37    38   ar
     4    38    39   ar
     5    39    40   ar
     6    40    41   ar
     7    41    36    1
     8    36    30    1
     9    30    31   am
    10    31    32    2
    11    31     1    1
    12     1     2    2
    13     2    11    1
    14    11    12   ar
    15    12    13   ar
    16    13    14   ar
    17    14    17    1
    18    17    18    1
    19    18    19    1
    20    19    20    1
    21    20    21    1
    22    21    22   ar
    23    22    23    1
    24    22    24   ar
    25    24    25   ar
    26    25    26   ar
    27    26    27    1
    28    26    28   ar
    29    28    29    1
    30    14    15   ar
    31    15    16   ar
    32     2     3    1
    33     4     3    1
    34     4     5    1
    35     5     6    1
    36     6     7    1
    37     8     7    1
    38     8     9    1
    39    30    33    1
    40    33    34    1
    41    34    35    1
    42    41    42   ar
    43    42    43    1
    44    42    37   ar
    45     8     1    1
    46    35    33    1
    47    16    11   ar
    48     9     4    1
    49    28    21   ar
    50     9    10    1
@<TRIPOS>MOLECULE
*****
 45 50 0 0 0
SMALL
GASTEIGER

@<TRIPOS>ATOM
      1 C          61.2850   88.0806    9.6247 C.2     1  UNL1        0.0441
      2 C          61.1310   86.6107    9.3679 C.2     1  UNL1       -0.0190
      3 C          60.1872   86.1297    8.3058 C.3     1  UNL1        0.0445
      4 C          59.3975   87.1186    7.5005 C.3     1  UNL1        0.0887
      5 C          58.6078   88.1074    6.6952 C.3     1  UNL1        0.1581
      6 O          58.7618   89.5772    6.9520 O.3     1  UNL1       -0.3506
      7 C          59.7056   90.0582    8.0140 C.3     1  UNL1        0.1624
      8 C          60.4953   89.0694    8.8194 C.3     1  UNL1        0.1110
      9 N          60.3412   87.5996    8.5626 N.3     1  UNL1       -0.2917
     10 H          60.0368   87.1777    9.4400 H       1  UNL1        0.1236
     11 C          61.9207   85.6219   10.1732 C.ar    1  UNL1       -0.0041
     12 C          61.7009   85.5139   11.6531 C.ar    1  UNL1       -0.0006
     13 C          62.4907   84.5250   12.4584 C.ar    1  UNL1       -0.0043
     14 C          63.5002   83.6442   11.7839 C.ar    1  UNL1       -0.0221
     15 C          63.7200   83.7522   10.3040 C.ar    1  UNL1       -0.0043
     16 C          62.9302   84.7411    9.4987 C.ar    1  UNL1       -0.0006
     17 C          64.2899   82.6554   12.5892 C.3     1  UNL1        0.0302
     18 C          63.6399   81.9252   13.7269 C.3     1  UNL1        0.0520
     19 C          62.9817   82.6947   14.8335 C.3     1  UNL1        0.2059
     20 O          63.8183   83.4592   15.8163 O.3     1  UNL1       -0.4723
     21 C          63.9768   84.9437   15.6713 C.ar    1  UNL1        0.1784
     22 C          65.0165   85.5000   14.7442 C.ar    1  UNL1        0.1748
     23 F          65.8976   84.5718   13.9619 F       1  UNL1       -0.2009
     24 C          65.1750   86.9845   14.5993 C.ar    1  UNL1        0.0351
     25 C          64.2938   87.9128   15.3815 C.ar    1  UNL1        0.0330
     26 C          63.2541   87.3565   16.3087 C.ar    1  UNL1        0.1537
     27 F          62.3729   88.2847   17.0909 F       1  UNL1       -0.2032
     28 C          63.0956   85.8719   16.4536 C.ar    1  UNL1        0.1211
     29 CL         62.0560   85.3156   17.3807 Cl      1  UNL1       -0.0766
     30 N          61.7225   89.4223   11.8060 N.am    1  UNL1       -0.2738
     31 C          62.2287   88.5616   10.6868 C.2     1  UNL1        0.2463
     32 O          63.6787   88.1817   10.6296 O.2     1  UNL1       -0.2702
     33 C          60.2725   89.8022   11.8631 C.3     1  UNL1        0.0760
     34 C          59.1773   90.7915   11.5955 C.3     1  UNL1        0.0215
     35 C          58.8563   89.4707   12.2297 C.3     1  UNL1        0.0215
     36 C          62.6662   89.9033   12.8681 C.3     1  UNL1        0.1201
     37 C          65.6527   92.4844   13.2794 C.ar    1  UNL1        0.1345
     38 C          65.8091   92.9644   11.8669 C.ar    1  UNL1        0.0366
     39 C          64.9179   92.4240   10.7881 C.ar    1  UNL1        0.0028
     40 C          63.8703   91.4036   11.1218 C.ar    1  UNL1       -0.0027
     41 C          63.7138   90.9236   12.5344 C.ar    1  UNL1       -0.0034
     42 C          64.6050   91.4640   13.6132 C.ar    1  UNL1        0.0098
     43 C          64.4486   90.9841   15.0256 C.3     1  UNL1        0.0339
     44 C          67.9380   92.4942   14.5151 C.3     1  UNL1        0.2525
     45 O          66.5438   93.0248   14.3582 O.3     1  UNL1       -0.4718
@<TRIPOS>BOND
     1    44    45    1
     2    45    37    1
     3    37    38   ar
     4    38    39   ar
     5    39    40   ar
     6    40    41   ar
     7    41    36    1
     8    36    30    1
     9    30    31   am
    10    31    32    2
    11    31     1    1
    12     1     2    2
    13     2    11    1
    14    11    12   ar
    15    12    13   ar
    16    13    14   ar
    17    14    17    1
    18    17    18    1
    19    18    19    1
    20    19    20    1
    21    20    21    1
    22    21    22   ar
    23    22    23    1
    24    22    24   ar
    25    24    25   ar
    26    25    26   ar
    27    26    27    1
    28    26    28   ar
    29    28    29    1
    30    14    15   ar
    31    15    16   ar
    32     2     3    1
    33     4     3    1
    34     4     5    1
    35     5     6    1
    36     6     7    1
    37     8     7    1
    38     8     9    1
    39    30    33    1
    40    33    34    1
    41    34    35    1
    42    41    42   ar
    43    42    43    1
    44    42    37   ar
    45     8     1    1
    46    35    33    1
    47    16    11   ar
    48     9     4    1
    49    28    21   ar
    50     9    10    1
@<TRIPOS>MOLECULE
*****
 45 50 0 0 0
SMALL
GASTEIGER

@<TRIPOS>ATOM
      1 C          63.5797   89.8881   12.1123 C.2     1  UNL1        0.0441
      2 C          64.0606   90.1663   13.5057 C.2     1  UNL1       -0.0190
      3 C          64.8062   91.4334   13.8029 C.3     1  UNL1        0.0445
      4 C          65.0710   92.4225   12.7066 C.3     1  UNL1        0.0887
      5 C          65.3358   93.4115   11.6104 C.3     1  UNL1        0.1581
      6 O          64.8550   93.1333   10.2171 O.3     1  UNL1       -0.3506
      7 C          64.1094   91.8662    9.9200 C.3     1  UNL1        0.1624
      8 C          63.8446   90.8771   11.0161 C.3     1  UNL1        0.1110
      9 N          64.3254   91.1553   12.4095 N.3     1  UNL1       -0.2917
     10 H          64.9407   90.3840   12.6681 H       1  UNL1        0.1236
     11 C          63.7958   89.1772   14.6019 C.ar    1  UNL1       -0.0041
     12 C          64.4363   87.8215   14.5598 C.ar    1  UNL1       -0.0006
     13 C          64.1715   86.8325   15.6560 C.ar    1  UNL1       -0.0043
     14 C          63.2661   87.1992   16.7944 C.ar    1  UNL1       -0.0221
     15 C          62.6255   88.5549   16.8365 C.ar    1  UNL1       -0.0043
     16 C          62.8904   89.5439   15.7403 C.ar    1  UNL1       -0.0006
     17 C          63.0013   86.2101   17.8905 C.3     1  UNL1        0.0302
     18 C          62.5201   84.8296   17.5550 C.3     1  UNL1        0.0520
     19 C          62.4586   84.3839   16.1240 C.3     1  UNL1        0.2059
     20 O          63.0833   83.0826   15.7163 O.3     1  UNL1       -0.4723
     21 C          63.1058   82.6817   14.2711 C.ar    1  UNL1        0.1784
     22 C          62.1174   81.6780   13.7557 C.ar    1  UNL1        0.1748
     23 F          61.1065   81.0752   14.6854 F       1  UNL1       -0.2009
     24 C          62.1400   81.2771   12.3104 C.ar    1  UNL1        0.0351
     25 C          63.1510   81.8799   11.3805 C.ar    1  UNL1        0.0330
     26 C          64.1394   82.8836   11.8960 C.ar    1  UNL1        0.1537
     27 F          65.1503   83.4865   10.9662 F       1  UNL1       -0.2032
     28 C          64.1168   83.2845   13.3413 C.ar    1  UNL1        0.1211
     29 CL         65.1051   84.2882   13.8567 Cl      1  UNL1       -0.0766
     30 N          61.3789   88.6738   11.4552 N.am    1  UNL1       -0.2738
     31 C          62.8341   88.6209   11.8152 C.2     1  UNL1        0.2463
     32 O          63.5437   87.3009   11.8780 O.2     1  UNL1       -0.2702
     33 C          60.6694   89.9938   11.3924 C.3     1  UNL1        0.0760
     34 C          59.4162   90.8036   11.5462 C.3     1  UNL1        0.0215
     35 C          60.6936   91.4704   11.1297 C.3     1  UNL1        0.0215
     36 C          60.6333   87.4066   11.1581 C.3     1  UNL1        0.1201
     37 C          61.1374   85.5935    7.6639 C.ar    1  UNL1        0.1345
     38 C          59.9695   86.1339    6.8932 C.ar    1  UNL1        0.0366
     39 C          59.0229   87.0984    7.5440 C.ar    1  UNL1        0.0028
     40 C          59.2442   87.5227    8.9656 C.ar    1  UNL1       -0.0027
     41 C          60.4121   86.9824    9.7365 C.ar    1  UNL1       -0.0034
     42 C          61.3587   86.0178    9.0856 C.ar    1  UNL1        0.0098
     43 C          62.5265   85.4775    9.8564 C.3     1  UNL1        0.0339
     44 C          62.0048   84.3817    5.5358 C.3     1  UNL1        0.2525
     45 O          62.0840   84.6290    7.0131 O.3     1  UNL1       -0.4718
@<TRIPOS>BOND
     1    44    45    1
     2    45    37    1
     3    37    38   ar
     4    38    39   ar
     5    39    40   ar
     6    40    41   ar
     7    41    36    1
     8    36    30    1
     9    30    31   am
    10    31    32    2
    11    31     1    1
    12     1     2    2
    13     2    11    1
    14    11    12   ar
    15    12    13   ar
    16    13    14   ar
    17    14    17    1
    18    17    18    1
    19    18    19    1
    20    19    20    1
    21    20    21    1
    22    21    22   ar
    23    22    23    1
    24    22    24   ar
    25    24    25   ar
    26    25    26   ar
    27    26    27    1
    28    26    28   ar
    29    28    29    1
    30    14    15   ar
    31    15    16   ar
    32     2     3    1
    33     4     3    1
    34     4     5    1
    35     5     6    1
    36     6     7    1
    37     8     7    1
    38     8     9    1
    39    30    33    1
    40    33    34    1
    41    34    35    1
    42    41    42   ar
    43    42    43    1
    44    42    37   ar
    45     8     1    1
    46    35    33    1
    47    16    11   ar
    48     9     4    1
    49    28    21   ar
    50     9    10    1
@<TRIPOS>MOLECULE
*****
 45 50 0 0 0
SMALL
GASTEIGER

@<TRIPOS>ATOM
      1 C          61.5761   87.2483   10.3844 C.2     1  UNL1        0.0441
      2 C          61.7519   88.7333   10.5019 C.2     1  UNL1       -0.0190
      3 C          60.9900   89.6529    9.5941 C.3     1  UNL1        0.0445
      4 C          60.0523   89.0874    8.5689 C.3     1  UNL1        0.0887
      5 C          59.1146   88.5219    7.5438 C.3     1  UNL1        0.1581
      6 O          58.9388   87.0369    7.4264 O.3     1  UNL1       -0.3506
      7 C          59.7007   86.1174    8.3341 C.3     1  UNL1        0.1624
      8 C          60.6384   86.6828    9.3593 C.3     1  UNL1        0.1110
      9 N          60.8142   88.1678    9.4767 N.3     1  UNL1       -0.2917
     10 H          61.8046   88.3598    9.3265 H       1  UNL1        0.1236
     11 C          62.6896   89.2988   11.5270 C.ar    1  UNL1       -0.0041
     12 C          63.1146   88.4621   12.6972 C.ar    1  UNL1       -0.0006
     13 C          64.0523   89.0277   13.7224 C.ar    1  UNL1       -0.0043
     14 C          64.5650   90.4298   13.5773 C.ar    1  UNL1       -0.0221
     15 C          64.1401   91.2665   12.4071 C.ar    1  UNL1       -0.0043
     16 C          63.2024   90.7010   11.3820 C.ar    1  UNL1       -0.0006
     17 C          65.5027   90.9952   14.6025 C.3     1  UNL1        0.0302
     18 C          66.1321   92.3390   14.3830 C.3     1  UNL1        0.0520
     19 C          66.8938   92.6132   13.1201 C.3     1  UNL1        0.2059
     20 O          66.9077   93.9954   12.5377 O.3     1  UNL1       -0.4723
     21 C          67.0782   94.1848   11.0596 C.ar    1  UNL1        0.1784
     22 C          67.7763   93.1366   10.2448 C.ar    1  UNL1        0.1748
     23 F          68.3039   91.8991   10.9081 F       1  UNL1       -0.2009
     24 C          67.9468   93.3260    8.7666 C.ar    1  UNL1        0.0351
     25 C          67.4192   94.5636    8.1032 C.ar    1  UNL1        0.0330
     26 C          66.7211   95.6118    8.9180 C.ar    1  UNL1        0.1537
     27 F          66.1935   96.8493    8.2547 F       1  UNL1       -0.2032
     28 C          66.5506   95.4223   10.3962 C.ar    1  UNL1        0.1211
     29 CL         65.8524   96.4705   11.2111 Cl      1  UNL1       -0.0766
     30 N          63.1441   85.2033   10.7148 N.am    1  UNL1       -0.2738
     31 C          62.3380   86.3287   11.2921 C.2     1  UNL1        0.2463
     32 O          62.2937   86.5347   12.7773 O.2     1  UNL1       -0.2702
     33 C          63.1884   84.9974    9.2297 C.3     1  UNL1        0.0760
     34 C          63.5169   85.5052    7.8570 C.3     1  UNL1        0.0215
     35 C          62.9366   84.1329    8.0300 C.3     1  UNL1        0.0215
     36 C          63.9060   84.2837   11.6225 C.3     1  UNL1        0.1201
     37 C          62.4847   80.6297   12.2373 C.ar    1  UNL1        0.1345
     38 C          61.8180   80.8053   13.5694 C.ar    1  UNL1        0.0366
     39 C          61.8473   82.1403   14.2526 C.ar    1  UNL1        0.0028
     40 C          62.5433   83.2998   13.6037 C.ar    1  UNL1       -0.0027
     41 C          63.2100   83.1242   12.2715 C.ar    1  UNL1       -0.0034
     42 C          63.1807   81.7892   11.5882 C.ar    1  UNL1        0.0098
     43 C          63.8474   81.6136   10.2561 C.3     1  UNL1        0.0339
     44 C          63.0293   79.1444   10.1764 C.3     1  UNL1        0.2525
     45 O          62.4554   79.2946   11.5541 O.3     1  UNL1       -0.4718
@<TRIPOS>BOND
     1    44    45    1
     2    45    37    1
     3    37    38   ar
     4    38    39   ar
     5    39    40   ar
     6    40    41   ar
     7    41    36    1
     8    36    30    1
     9    30    31   am
    10    31    32    2
    11    31     1    1
    12     1     2    2
    13     2    11    1
    14    11    12   ar
    15    12    13   ar
    16    13    14   ar
    17    14    17    1
    18    17    18    1
    19    18    19    1
    20    19    20    1
    21    20    21    1
    22    21    22   ar
    23    22    23    1
    24    22    24   ar
    25    24    25   ar
    26    25    26   ar
    27    26    27    1
    28    26    28   ar
    29    28    29    1
    30    14    15   ar
    31    15    16   ar
    32     2     3    1
    33     4     3    1
    34     4     5    1
    35     5     6    1
    36     6     7    1
    37     8     7    1
    38     8     9    1
    39    30    33    1
    40    33    34    1
    41    34    35    1
    42    41    42   ar
    43    42    43    1
    44    42    37   ar
    45     8     1    1
    46    35    33    1
    47    16    11   ar
    48     9     4    1
    49    28    21   ar
    50     9    10    1
@<TRIPOS>MOLECULE
*****
 45 50 0 0 0
SMALL
GASTEIGER

@<TRIPOS>ATOM
      1 C          61.3999   86.9880   10.0032 C.2     1  UNL1        0.0441
      2 C          61.5208   88.4695   10.2054 C.2     1  UNL1       -0.0190
      3 C          60.7036   89.4097    9.3698 C.3     1  UNL1        0.0445
      4 C          59.7654   88.8684    8.3321 C.3     1  UNL1        0.0887
      5 C          58.8272   88.3273    7.2943 C.3     1  UNL1        0.1581
      6 O          58.7063   86.8459    7.0922 O.3     1  UNL1       -0.3506
      7 C          59.5235   85.9057    7.9277 C.3     1  UNL1        0.1624
      8 C          60.4617   86.4469    8.9655 C.3     1  UNL1        0.1110
      9 N          60.5826   87.9282    9.1676 N.3     1  UNL1       -0.2917
     10 H          61.5613   88.1681    9.0090 H       1  UNL1        0.1236
     11 C          62.4590   89.0106   11.2432 C.ar    1  UNL1       -0.0041
     12 C          62.9037   90.4418   11.1789 C.ar    1  UNL1       -0.0006
     13 C          63.8419   90.9829   12.2167 C.ar    1  UNL1       -0.0043
     14 C          64.3354   90.0930   13.3187 C.ar    1  UNL1       -0.0221
     15 C          63.8907   88.6618   13.3830 C.ar    1  UNL1       -0.0043
     16 C          62.9525   88.1207   12.3452 C.ar    1  UNL1       -0.0006
     17 C          65.2736   90.6341   14.3564 C.3     1  UNL1        0.0302
     18 C          65.8144   92.0271   14.2252 C.3     1  UNL1        0.0520
     19 C          67.0864   92.2695   13.4680 C.3     1  UNL1        0.2059
     20 O          67.1751   91.9072   12.0151 O.3     1  UNL1       -0.4723
     21 C          67.2472   92.9865   10.9760 C.ar    1  UNL1        0.1784
     22 C          67.7679   92.6737    9.6045 C.ar    1  UNL1        0.1748
     23 F          68.2165   91.2815    9.2721 F       1  UNL1       -0.2009
     24 C          67.8399   93.7530    8.5654 C.ar    1  UNL1        0.0351
     25 C          67.3913   95.1453    8.8978 C.ar    1  UNL1        0.0330
     26 C          66.8706   95.4581   10.2693 C.ar    1  UNL1        0.1537
     27 F          66.4220   96.8503   10.6017 F       1  UNL1       -0.2032
     28 C          66.7986   94.3787   11.3084 C.ar    1  UNL1        0.1211
     29 CL         66.2779   94.6915   12.6799 Cl      1  UNL1       -0.0766
     30 N          63.1040   85.0347   10.1778 N.am    1  UNL1       -0.2738
     31 C          62.2171   86.0479   10.8388 C.2     1  UNL1        0.2463
     32 O          62.1474   86.1209   12.3354 O.2     1  UNL1       -0.2702
     33 C          63.1736   84.9618    8.6812 C.3     1  UNL1        0.0760
     34 C          63.7381   85.4538    7.3815 C.3     1  UNL1        0.0215
     35 C          62.7297   84.3434    7.3887 C.3     1  UNL1        0.0215
     36 C          63.9212   84.0945   11.0134 C.3     1  UNL1        0.1201
     37 C          62.8224   83.0352   14.6768 C.ar    1  UNL1        0.1345
     38 C          61.9907   81.8219   14.3835 C.ar    1  UNL1        0.0366
     39 C          61.8025   81.3661   12.9669 C.ar    1  UNL1        0.0028
     40 C          62.4460   82.1236   11.8435 C.ar    1  UNL1       -0.0027
     41 C          63.2777   83.3370   12.1367 C.ar    1  UNL1       -0.0034
     42 C          63.4659   83.7928   13.5533 C.ar    1  UNL1        0.0098
     43 C          64.2976   85.0062   13.8466 C.3     1  UNL1        0.0339
     44 C          62.4733   84.8214   16.5308 C.3     1  UNL1        0.2525
     45 O          63.0106   83.4910   16.0934 O.3     1  UNL1       -0.4718
@<TRIPOS>BOND
     1    44    45    1
     2    45    37    1
     3    37    38   ar
     4    38    39   ar
     5    39    40   ar
     6    40    41   ar
     7    41    36    1
     8    36    30    1
     9    30    31   am
    10    31    32    2
    11    31     1    1
    12     1     2    2
    13     2    11    1
    14    11    12   ar
    15    12    13   ar
    16    13    14   ar
    17    14    17    1
    18    17    18    1
    19    18    19    1
    20    19    20    1
    21    20    21    1
    22    21    22   ar
    23    22    23    1
    24    22    24   ar
    25    24    25   ar
    26    25    26   ar
    27    26    27    1
    28    26    28   ar
    29    28    29    1
    30    14    15   ar
    31    15    16   ar
    32     2     3    1
    33     4     3    1
    34     4     5    1
    35     5     6    1
    36     6     7    1
    37     8     7    1
    38     8     9    1
    39    30    33    1
    40    33    34    1
    41    34    35    1
    42    41    42   ar
    43    42    43    1
    44    42    37   ar
    45     8     1    1
    46    35    33    1
    47    16    11   ar
    48     9     4    1
    49    28    21   ar
    50     9    10    1
@<TRIPOS>MOLECULE
*****
 45 50 0 0 0
SMALL
GASTEIGER

@<TRIPOS>ATOM
      1 C          62.5535   83.8454   12.9843 C.2     1  UNL1        0.0441
      2 C          62.9436   83.9028   14.4316 C.2     1  UNL1       -0.0190
      3 C          63.2006   82.6343   15.1899 C.3     1  UNL1        0.0445
      4 C          63.0674   81.3085   14.5010 C.3     1  UNL1        0.0887
      5 C          62.9343   79.9828   13.8120 C.3     1  UNL1        0.1581
      6 O          62.5442   79.9255   12.3648 O.3     1  UNL1       -0.3506
      7 C          62.2872   81.1939   11.6065 C.3     1  UNL1        0.1624
      8 C          62.4203   82.5197   12.2954 C.3     1  UNL1        0.1110
      9 N          62.8105   82.5770   13.7426 N.3     1  UNL1       -0.2917
     10 H          62.0596   83.0649   14.2309 H       1  UNL1        0.1236
     11 C          63.0768   85.2285   15.1206 C.ar    1  UNL1       -0.0041
     12 C          62.2820   85.5125   16.3606 C.ar    1  UNL1       -0.0006
     13 C          62.4152   86.8384   17.0495 C.ar    1  UNL1       -0.0043
     14 C          63.3431   87.8800   16.4984 C.ar    1  UNL1       -0.0221
     15 C          64.1379   87.5960   15.2584 C.ar    1  UNL1       -0.0043
     16 C          64.0048   86.2703   14.5695 C.ar    1  UNL1       -0.0006
     17 C          63.4763   89.2058   17.1873 C.3     1  UNL1        0.0302
     18 C          63.1476   90.4703   16.4504 C.3     1  UNL1        0.0520
     19 C          64.2504   91.3629   15.9635 C.3     1  UNL1        0.2059
     20 O          65.1899   90.8812   14.8979 O.3     1  UNL1       -0.4723
     21 C          65.2476   91.5854   13.5748 C.ar    1  UNL1        0.1784
     22 C          66.2360   92.6925   13.3568 C.ar    1  UNL1        0.1748
     23 F          67.1666   93.0954   14.4619 F       1  UNL1       -0.2009
     24 C          66.2937   93.3966   12.0336 C.ar    1  UNL1        0.0351
     25 C          65.3630   92.9937   10.9283 C.ar    1  UNL1        0.0330
     26 C          64.3746   91.8866   11.1463 C.ar    1  UNL1        0.1537
     27 F          63.4439   91.4837   10.0412 F       1  UNL1       -0.2032
     28 C          64.3169   91.1825   12.4696 C.ar    1  UNL1        0.1211
     29 CL         63.3285   90.0754   12.6876 Cl      1  UNL1       -0.0766
     30 N          62.8950   85.3080   10.8644 N.am    1  UNL1       -0.2738
     31 C          62.2965   85.1138   12.2260 C.2     1  UNL1        0.2463
     32 O          61.4410   86.1882   12.8294 O.2     1  UNL1       -0.2702
     33 C          63.7505   84.2337   10.2611 C.3     1  UNL1        0.0760
     34 C          64.8810   83.2548   10.3777 C.3     1  UNL1        0.0215
     35 C          64.1018   83.3520    9.0997 C.3     1  UNL1        0.0215
     36 C          62.6381   86.5765   10.1061 C.3     1  UNL1        0.1201
     37 C          59.7127   87.9726    7.8164 C.ar    1  UNL1        0.1345
     38 C          59.3433   86.7400    7.0455 C.ar    1  UNL1        0.0366
     39 C          60.0721   85.4529    7.2948 C.ar    1  UNL1        0.0028
     40 C          61.1704   85.3984    8.3150 C.ar    1  UNL1       -0.0027
     41 C          61.5398   86.6310    9.0859 C.ar    1  UNL1       -0.0034
     42 C          60.8110   87.9181    8.8366 C.ar    1  UNL1        0.0098
     43 C          61.1803   89.1506    9.6075 C.3     1  UNL1        0.0339
     44 C          59.0763   89.9265    6.2267 C.3     1  UNL1        0.2525
     45 O          58.9838   89.2597    7.5671 O.3     1  UNL1       -0.4718
@<TRIPOS>BOND
     1    44    45    1
     2    45    37    1
     3    37    38   ar
     4    38    39   ar
     5    39    40   ar
     6    40    41   ar
     7    41    36    1
     8    36    30    1
     9    30    31   am
    10    31    32    2
    11    31     1    1
    12     1     2    2
    13     2    11    1
    14    11    12   ar
    15    12    13   ar
    16    13    14   ar
    17    14    17    1
    18    17    18    1
    19    18    19    1
    20    19    20    1
    21    20    21    1
    22    21    22   ar
    23    22    23    1
    24    22    24   ar
    25    24    25   ar
    26    25    26   ar
    27    26    27    1
    28    26    28   ar
    29    28    29    1
    30    14    15   ar
    31    15    16   ar
    32     2     3    1
    33     4     3    1
    34     4     5    1
    35     5     6    1
    36     6     7    1
    37     8     7    1
    38     8     9    1
    39    30    33    1
    40    33    34    1
    41    34    35    1
    42    41    42   ar
    43    42    43    1
    44    42    37   ar
    45     8     1    1
    46    35    33    1
    47    16    11   ar
    48     9     4    1
    49    28    21   ar
    50     9    10    1
@<TRIPOS>MOLECULE
*****
 45 50 0 0 0
SMALL
GASTEIGER

@<TRIPOS>ATOM
      1 C          62.6402   84.5043   12.6901 C.2     1  UNL1        0.0441
      2 C          63.4885   84.9775   13.8332 C.2     1  UNL1       -0.0190
      3 C          64.1233   83.9820   14.7584 C.3     1  UNL1        0.0445
      4 C          63.9099   82.5133   14.5405 C.3     1  UNL1        0.0887
      5 C          63.6965   81.0447   14.3226 C.3     1  UNL1        0.1581
      6 O          62.8483   80.5716   13.1795 O.3     1  UNL1       -0.3506
      7 C          62.2134   81.5671   12.2544 C.3     1  UNL1        0.1624
      8 C          62.4268   83.0357   12.4723 C.3     1  UNL1        0.1110
      9 N          63.2751   83.5088   13.6153 N.3     1  UNL1       -0.2917
     10 H          62.6854   84.1107   14.1902 H       1  UNL1        0.1236
     11 C          63.7019   86.4462   14.0511 C.ar    1  UNL1       -0.0041
     12 C          63.6826   87.3881   12.8839 C.ar    1  UNL1       -0.0006
     13 C          63.8960   88.8569   13.1019 C.ar    1  UNL1       -0.0043
     14 C          64.1287   89.3835   14.4869 C.ar    1  UNL1       -0.0221
     15 C          64.1481   88.4415   15.6541 C.ar    1  UNL1       -0.0043
     16 C          63.9346   86.9729   15.4362 C.ar    1  UNL1       -0.0006
     17 C          64.3421   90.8521   14.7048 C.3     1  UNL1        0.0302
     18 C          65.5382   91.5329   14.1081 C.3     1  UNL1        0.0520
     19 C          65.3745   92.4273   12.9151 C.3     1  UNL1        0.2059
     20 O          66.3404   93.5510   12.6821 O.3     1  UNL1       -0.4723
     21 C          66.7209   93.9350   11.2829 C.ar    1  UNL1        0.1784
     22 C          66.2532   95.2398   10.7097 C.ar    1  UNL1        0.1748
     23 F          65.4050   96.1608   11.5358 F       1  UNL1       -0.2009
     24 C          66.6336   95.6238    9.3105 C.ar    1  UNL1        0.0351
     25 C          67.4819   94.7028    8.4844 C.ar    1  UNL1        0.0330
     26 C          67.9496   93.3980    9.0576 C.ar    1  UNL1        0.1537
     27 F          68.7978   92.4770    8.2315 F       1  UNL1       -0.2032
     28 C          67.5691   93.0140   10.4568 C.ar    1  UNL1        0.1211
     29 CL         68.0369   91.7092   11.0300 Cl      1  UNL1       -0.0766
     30 N          62.3428   85.4869   10.3035 N.am    1  UNL1       -0.2738
     31 C          62.0054   85.4999   11.7650 C.2     1  UNL1        0.2463
     32 O          61.0331   86.5084   12.3014 O.2     1  UNL1       -0.2702
     33 C          63.3150   84.4784    9.7672 C.3     1  UNL1        0.0760
     34 C          63.9098   83.7367    8.6070 C.3     1  UNL1        0.0215
     35 C          64.4041   83.4732    9.9984 C.3     1  UNL1        0.0215
     36 C          61.7079   86.4824    9.3783 C.3     1  UNL1        0.1201
     37 C          60.5316   90.1722   10.2451 C.ar    1  UNL1        0.1345
     38 C          61.8534   90.8728   10.3547 C.ar    1  UNL1        0.0366
     39 C          63.1267   90.1099   10.1389 C.ar    1  UNL1        0.0028
     40 C          63.0782   88.6464    9.8134 C.ar    1  UNL1       -0.0027
     41 C          61.7564   87.9458    9.7038 C.ar    1  UNL1       -0.0034
     42 C          60.4831   88.7087    9.9196 C.ar    1  UNL1        0.0098
     43 C          59.1613   88.0082    9.8100 C.3     1  UNL1        0.0339
     44 C          58.6492   91.0060   11.8299 C.3     1  UNL1        0.2525
     45 O          59.2582   90.9351   10.4610 O.3     1  UNL1       -0.4718
@<TRIPOS>BOND
     1    44    45    1
     2    45    37    1
     3    37    38   ar
     4    38    39   ar
     5    39    40   ar
     6    40    41   ar
     7    41    36    1
     8    36    30    1
     9    30    31   am
    10    31    32    2
    11    31     1    1
    12     1     2    2
    13     2    11    1
    14    11    12   ar
    15    12    13   ar
    16    13    14   ar
    17    14    17    1
    18    17    18    1
    19    18    19    1
    20    19    20    1
    21    20    21    1
    22    21    22   ar
    23    22    23    1
    24    22    24   ar
    25    24    25   ar
    26    25    26   ar
    27    26    27    1
    28    26    28   ar
    29    28    29    1
    30    14    15   ar
    31    15    16   ar
    32     2     3    1
    33     4     3    1
    34     4     5    1
    35     5     6    1
    36     6     7    1
    37     8     7    1
    38     8     9    1
    39    30    33    1
    40    33    34    1
    41    34    35    1
    42    41    42   ar
    43    42    43    1
    44    42    37   ar
    45     8     1    1
    46    35    33    1
    47    16    11   ar
    48     9     4    1
    49    28    21   ar
    50     9    10    1
