@<TRIPOS>MOLECULE
*****
 30 33 0 0 0
SMALL
GASTEIGER

@<TRIPOS>ATOM
      1 C          62.0613   89.0193   10.8308 C.3     1  UNL1        0.0324
      2 C          61.1857   88.5611    9.7024 C.ar    1  UNL1       -0.0071
      3 C          60.8226   89.5123    8.6010 C.ar    1  UNL1        0.0115
      4 C          59.9470   89.0541    7.4725 C.ar    1  UNL1        0.0476
      5 C          59.4345   87.6447    7.4456 C.ar    1  UNL1        0.0158
      6 C          59.7976   86.6935    8.5470 C.ar    1  UNL1        0.0156
      7 C          60.6732   87.1517    9.6755 C.ar    1  UNL1        0.0466
      8 N          59.5839   90.0054    6.3710 N.pl3   1  UNL1       -0.3061
      9 C          58.2006   90.4774    6.0339 C.3     1  UNL1        0.0923
     10 C          58.3022   91.4154    4.8678 C.3     1  UNL1        0.0391
     11 C          59.7483   91.5232    4.4842 C.3     1  UNL1        0.0790
     12 C          60.5405   90.6518    5.4132 C.3     1  UNL1        0.1067
     13 N          60.3046   92.3561    3.3676 N.3     1  UNL1       -0.2736
     14 C          59.5502   93.3779    2.5697 C.3     1  UNL1        0.0721
     15 C          60.4923   93.9668    1.5619 C.3     1  UNL1        0.0187
     16 C          61.8289   93.3089    1.7370 C.3     1  UNL1        0.0174
     17 C          61.7129   92.3135    2.8530 C.3     1  UNL1        0.0576
     18 C          62.8122   91.4304    3.3646 C.3     1  UNL1        0.0173
     19 N          61.0363   86.2004   10.7770 N.am    1  UNL1       -0.2806
     20 C          62.2292   85.3030   10.6301 C.2     1  UNL1        0.2493
     21 O          63.0591   85.3569    9.3817 O.2     1  UNL1       -0.2698
     22 H          60.4916   86.1650   11.5963 H       1  UNL1        0.1552
     23 C          62.5923   84.3517   11.7316 C.ar    1  UNL1        0.0520
     24 C          62.3566   82.8803   11.5599 C.ar    1  UNL1        0.0338
     25 C          62.7197   81.9290   12.6613 C.ar    1  UNL1        0.1403
     26 F          62.4840   80.4576   12.4896 F       1  UNL1       -0.2042
     27 C          63.3185   82.4491   13.9344 C.ar    1  UNL1        0.0293
     28 C          63.5541   83.9205   14.1062 C.ar    1  UNL1       -0.0018
     29 C          63.1911   84.8718   13.0048 C.ar    1  UNL1       -0.0173
     30 C          63.4268   86.3431   13.1765 C.3     1  UNL1        0.0312
@<TRIPOS>BOND
     1     1     2    1
     2     2     3   ar
     3     3     4   ar
     4     4     8    1
     5     8     9    1
     6     9    10    1
     7    10    11    1
     8    11    13    1
     9    13    14    1
    10    14    15    1
    11    15    16    1
    12    16    17    1
    13    17    18    1
    14    11    12    1
    15     4     5   ar
    16     5     6   ar
    17     6     7   ar
    18     7    19    1
    19    19    20   am
    20    20    21    2
    21    20    23    1
    22    23    24   ar
    23    24    25   ar
    24    25    26    1
    25    25    27   ar
    26    27    28   ar
    27    28    29   ar
    28    29    30    1
    29     7     2   ar
    30    29    23   ar
    31    12     8    1
    32    17    13    1
    33    19    22    1
@<TRIPOS>MOLECULE
*****
 30 33 0 0 0
SMALL
GASTEIGER

@<TRIPOS>ATOM
      1 C          61.9935   89.1246   10.8217 C.3     1  UNL1        0.0324
      2 C          61.1541   88.6471    9.6739 C.ar    1  UNL1       -0.0071
      3 C          60.7862   89.5929    8.5693 C.ar    1  UNL1        0.0115
      4 C          59.9469   89.1153    7.4215 C.ar    1  UNL1        0.0476
      5 C          59.4754   87.6920    7.3783 C.ar    1  UNL1        0.0158
      6 C          59.8434   86.7463    8.4828 C.ar    1  UNL1        0.0156
      7 C          60.6827   87.2238    9.6306 C.ar    1  UNL1        0.0466
      8 N          59.5789   90.0612    6.3169 N.pl3   1  UNL1       -0.3061
      9 C          58.1953   90.5390    5.9896 C.3     1  UNL1        0.0923
     10 C          58.2913   91.4684    4.8162 C.3     1  UNL1        0.0391
     11 C          59.7344   91.5650    4.4182 C.3     1  UNL1        0.0790
     12 C          60.5301   90.6953    5.3458 C.3     1  UNL1        0.1067
     13 N          60.2849   92.3870    3.2908 N.3     1  UNL1       -0.2736
     14 C          59.5229   93.3912    2.4778 C.3     1  UNL1        0.0721
     15 C          60.4612   93.9739    1.4629 C.3     1  UNL1        0.0187
     16 C          61.8031   93.3298    1.6486 C.3     1  UNL1        0.0174
     17 C          61.6942   92.3491    2.7783 C.3     1  UNL1        0.0576
     18 C          62.8003   91.4825    3.3034 C.3     1  UNL1        0.0173
     19 N          61.0506   86.2779   10.7352 N.am    1  UNL1       -0.2806
     20 C          62.2644   85.4066   10.6033 C.2     1  UNL1        0.2493
     21 O          63.1104   85.4811    9.3668 O.2     1  UNL1       -0.2698
     22 H          60.4954   86.2290   11.5467 H       1  UNL1        0.1552
     23 C          62.6324   84.4607   11.7078 C.ar    1  UNL1        0.0520
     24 C          62.2282   84.7635   13.1203 C.ar    1  UNL1        0.0338
     25 C          62.5961   83.8177   14.2248 C.ar    1  UNL1        0.1403
     26 F          62.1920   84.1206   15.6373 F       1  UNL1       -0.2042
     27 C          63.3681   82.5691   13.9169 C.ar    1  UNL1        0.0293
     28 C          63.7722   82.2662   12.5045 C.ar    1  UNL1       -0.0018
     29 C          63.4044   83.2120   11.4000 C.ar    1  UNL1       -0.0173
     30 C          63.8085   82.9092    9.9875 C.3     1  UNL1        0.0312
@<TRIPOS>BOND
     1     1     2    1
     2     2     3   ar
     3     3     4   ar
     4     4     8    1
     5     8     9    1
     6     9    10    1
     7    10    11    1
     8    11    13    1
     9    13    14    1
    10    14    15    1
    11    15    16    1
    12    16    17    1
    13    17    18    1
    14    11    12    1
    15     4     5   ar
    16     5     6   ar
    17     6     7   ar
    18     7    19    1
    19    19    20   am
    20    20    21    2
    21    20    23    1
    22    23    24   ar
    23    24    25   ar
    24    25    26    1
    25    25    27   ar
    26    27    28   ar
    27    28    29   ar
    28    29    30    1
    29     7     2   ar
    30    29    23   ar
    31    12     8    1
    32    17    13    1
    33    19    22    1
@<TRIPOS>MOLECULE
*****
 30 33 0 0 0
SMALL
GASTEIGER

@<TRIPOS>ATOM
      1 C          64.0505   92.5310    1.8352 C.3     1  UNL1        0.0324
      2 C          62.6226   92.8216    2.1909 C.ar    1  UNL1       -0.0071
      3 C          61.9214   91.9866    3.2209 C.ar    1  UNL1        0.0115
      4 C          60.4935   92.2772    3.5767 C.ar    1  UNL1        0.0476
      5 C          59.7667   93.4029    2.9025 C.ar    1  UNL1        0.0158
      6 C          60.4679   94.2379    1.8725 C.ar    1  UNL1        0.0156
      7 C          61.8958   93.9473    1.5167 C.ar    1  UNL1        0.0466
      8 N          59.7923   91.4420    4.6068 N.pl3   1  UNL1       -0.3061
      9 C          58.3352   91.5125    4.9561 C.3     1  UNL1        0.0923
     10 C          58.0675   90.5038    6.0335 C.3     1  UNL1        0.0391
     11 C          59.3592   89.8100    6.3502 C.3     1  UNL1        0.0790
     12 C          60.4251   90.3898    5.4684 C.3     1  UNL1        0.1067
     13 N          59.5512   88.7265    7.3696 N.3     1  UNL1       -0.2736
     14 C          59.2772   87.2659    7.1661 C.3     1  UNL1        0.0721
     15 C          59.6075   86.5501    8.4422 C.3     1  UNL1        0.0187
     16 C          60.0857   87.5684    9.4344 C.3     1  UNL1        0.0174
     17 C          60.0508   88.9135    8.7715 C.3     1  UNL1        0.0576
     18 C          60.4463   90.2168    9.4001 C.3     1  UNL1        0.0173
     19 N          62.5970   94.7825    0.4867 N.am    1  UNL1       -0.2806
     20 C          62.6059   94.3505   -0.9497 C.2     1  UNL1        0.2493
     21 O          61.9137   93.0833   -1.3561 O.2     1  UNL1       -0.2698
     22 H          63.0514   95.6141    0.7534 H       1  UNL1        0.1552
     23 C          63.3071   95.1856   -1.9798 C.ar    1  UNL1        0.0520
     24 C          64.7322   95.6014   -1.7648 C.ar    1  UNL1        0.0338
     25 C          65.4334   96.4365   -2.7947 C.ar    1  UNL1        0.1403
     26 F          66.8584   96.8523   -2.5797 F       1  UNL1       -0.2042
     27 C          64.7095   96.8558   -4.0397 C.ar    1  UNL1        0.0293
     28 C          63.2844   96.4400   -4.2548 C.ar    1  UNL1       -0.0018
     29 C          62.5832   95.6049   -3.2248 C.ar    1  UNL1       -0.0173
     30 C          61.1581   95.1891   -3.4398 C.3     1  UNL1        0.0312
@<TRIPOS>BOND
     1     1     2    1
     2     2     3   ar
     3     3     4   ar
     4     4     8    1
     5     8     9    1
     6     9    10    1
     7    10    11    1
     8    11    13    1
     9    13    14    1
    10    14    15    1
    11    15    16    1
    12    16    17    1
    13    17    18    1
    14    11    12    1
    15     4     5   ar
    16     5     6   ar
    17     6     7   ar
    18     7    19    1
    19    19    20   am
    20    20    21    2
    21    20    23    1
    22    23    24   ar
    23    24    25   ar
    24    25    26    1
    25    25    27   ar
    26    27    28   ar
    27    28    29   ar
    28    29    30    1
    29     7     2   ar
    30    29    23   ar
    31    12     8    1
    32    17    13    1
    33    19    22    1
