@<TRIPOS>MOLECULE
*****
 35 39 0 0 0
SMALL
GASTEIGER

@<TRIPOS>ATOM
      1 O          64.4641   88.1061   13.2945 O.2     1  UNL1       -0.2747
      2 C          63.2074   88.3653   12.5177 C.2     1  UNL1        0.2294
      3 N          62.4200   89.6185   12.7615 N.am    1  UNL1       -0.2769
      4 C          62.7380   87.3712   11.4971 C.3     1  UNL1        0.1211
      5 C          62.1792   87.8465   10.1888 C.3     1  UNL1        0.0804
      6 N          61.7099   86.8524    9.1683 N.3     1  UNL1       -0.2969
      7 C          61.7993   85.3830    9.4561 C.3     1  UNL1        0.0714
      8 C          62.3581   84.9077   10.7644 C.3     1  UNL1        0.0490
      9 C          62.8274   85.9018   11.7849 C.3     1  UNL1        0.1224
     10 O          63.3334   86.7730   12.8963 O.3     1  UNL1       -0.3492
     11 C          63.7970   85.8815   14.0099 C.3     1  UNL1        0.1687
     12 C          63.5777   84.4591   13.5869 C.ar    1  UNL1        0.0079
     13 C          63.8462   83.1543   14.2761 C.ar    1  UNL1        0.0299
     14 C          63.5154   81.8618   13.5903 C.ar    1  UNL1        0.1671
     15 F          63.7839   80.5569   14.2795 F       1  UNL1       -0.2018
     16 C          62.9162   81.8744   12.2153 C.ar    1  UNL1        0.1671
     17 F          62.5855   80.5820   11.5294 F       1  UNL1       -0.2018
     18 C          62.6477   83.1793   11.5259 C.ar    1  UNL1        0.0297
     19 C          62.9784   84.4717   12.2118 C.ar    1  UNL1        0.0033
     20 H          62.2537   87.0203    8.3218 H       1  UNL1        0.1233
     21 C          61.1632   89.8776   11.9846 C.3     1  UNL1        0.0758
     22 C          59.6799   89.7223   11.8241 C.3     1  UNL1        0.0215
     23 C          60.4697   90.4817   10.7997 C.3     1  UNL1        0.0215
     24 C          62.8893   90.6126   13.7820 C.3     1  UNL1        0.1209
     25 C          64.2639   91.2037   13.6764 C.ar    1  UNL1        0.0082
     26 C          65.1928   91.1570   14.8531 C.ar    1  UNL1       -0.0018
     27 C          66.5673   91.7482   14.7475 C.ar    1  UNL1       -0.0003
     28 C          67.0129   92.3861   13.4652 C.ar    1  UNL1        0.0047
     29 C          66.0840   92.4328   12.2883 C.ar    1  UNL1        0.0817
     30 C          64.7094   91.8416   12.3939 C.ar    1  UNL1        0.0592
     31 CL         63.7805   91.8883   11.2171 Cl      1  UNL1       -0.0826
     32 C          66.5296   93.0706   11.0059 C.3     1  UNL1        0.4194
     33 F          66.9752   93.7085    9.7236 F       1  UNL1       -0.1658
     34 F          67.3079   91.8354   10.6620 F       1  UNL1       -0.1658
     35 F          65.7513   94.3059   11.3499 F       1  UNL1       -0.1658
@<TRIPOS>BOND
     1     1     2    2
     2     4     2    1
     3     4     5    1
     4     5     6    1
     5     6     7    1
     6     7     8    1
     7     9     8    1
     8     9    10    1
     9    10    11    1
    10    11    12    1
    11    12    13   ar
    12    13    14   ar
    13    14    15    1
    14    14    16   ar
    15    16    17    1
    16    16    18   ar
    17    18    19   ar
    18     2     3   am
    19     3    24    1
    20    24    25    1
    21    25    26   ar
    22    26    27   ar
    23    27    28   ar
    24    28    29   ar
    25    29    32    1
    26    32    33    1
    27    32    34    1
    28    32    35    1
    29    29    30   ar
    30    30    31    1
    31     3    21    1
    32    21    22    1
    33    22    23    1
    34     9     4    1
    35    19    12   ar
    36    30    25   ar
    37    23    21    1
    38    19     9    1
    39     6    20    1
@<TRIPOS>MOLECULE
*****
 35 39 0 0 0
SMALL
GASTEIGER

@<TRIPOS>ATOM
      1 O          64.3649   88.2346   13.1188 O.2     1  UNL1       -0.2747
      2 C          63.0848   88.4309   12.3622 C.2     1  UNL1        0.2294
      3 N          62.2611   89.6639   12.5889 N.am    1  UNL1       -0.2769
      4 C          62.6282   87.3943   11.3787 C.3     1  UNL1        0.1211
      5 C          62.0490   87.8147   10.0605 C.3     1  UNL1        0.0804
      6 N          61.5925   86.7781    9.0772 N.3     1  UNL1       -0.2969
      7 C          61.7152   85.3211    9.4120 C.3     1  UNL1        0.0714
      8 C          62.2944   84.9007   10.7303 C.3     1  UNL1        0.0490
      9 C          62.7509   85.9373   11.7136 C.3     1  UNL1        0.1224
     10 O          63.2473   86.8550   12.7914 O.3     1  UNL1       -0.3492
     11 C          63.7386   86.0103   13.9295 C.3     1  UNL1        0.1687
     12 C          63.5459   84.5705   13.5551 C.ar    1  UNL1        0.0079
     13 C          63.8473   83.2949   14.2841 C.ar    1  UNL1        0.0299
     14 C          63.5383   81.9740   13.6438 C.ar    1  UNL1        0.1671
     15 F          63.8398   80.6983   14.3729 F       1  UNL1       -0.2018
     16 C          62.9279   81.9290   12.2744 C.ar    1  UNL1        0.1671
     17 F          62.6189   80.6082   11.6341 F       1  UNL1       -0.2018
     18 C          62.6264   83.2047   11.5452 C.ar    1  UNL1        0.0297
     19 C          62.9354   84.5255   12.1855 C.ar    1  UNL1        0.0033
     20 H          62.1258   86.9294    8.2210 H       1  UNL1        0.1233
     21 C          60.9808   89.8602   11.8322 C.3     1  UNL1        0.0758
     22 C          59.4984   89.6644   11.7145 C.3     1  UNL1        0.0215
     23 C          60.2459   90.3960   10.6394 C.3     1  UNL1        0.0215
     24 C          62.7176   90.7004   13.5723 C.3     1  UNL1        0.1209
     25 C          64.0740   91.3245   13.4288 C.ar    1  UNL1        0.0082
     26 C          64.5114   91.8716   12.1025 C.ar    1  UNL1       -0.0018
     27 C          65.8679   92.4956   11.9590 C.ar    1  UNL1       -0.0003
     28 C          66.7870   92.5725   13.1419 C.ar    1  UNL1        0.0047
     29 C          66.3496   92.0254   14.4684 C.ar    1  UNL1        0.0817
     30 C          64.9931   91.4014   14.6118 C.ar    1  UNL1        0.0592
     31 CL         64.5558   90.8542   15.9382 Cl      1  UNL1       -0.0826
     32 C          67.2687   92.1023   15.6513 C.3     1  UNL1        0.4194
     33 F          68.1878   92.1792   16.8342 F       1  UNL1       -0.1658
     34 F          68.0766   90.9663   15.0974 F       1  UNL1       -0.1658
     35 F          66.4608   93.2382   16.2052 F       1  UNL1       -0.1658
@<TRIPOS>BOND
     1     1     2    2
     2     4     2    1
     3     4     5    1
     4     5     6    1
     5     6     7    1
     6     7     8    1
     7     9     8    1
     8     9    10    1
     9    10    11    1
    10    11    12    1
    11    12    13   ar
    12    13    14   ar
    13    14    15    1
    14    14    16   ar
    15    16    17    1
    16    16    18   ar
    17    18    19   ar
    18     2     3   am
    19     3    24    1
    20    24    25    1
    21    25    26   ar
    22    26    27   ar
    23    27    28   ar
    24    28    29   ar
    25    29    32    1
    26    32    33    1
    27    32    34    1
    28    32    35    1
    29    29    30   ar
    30    30    31    1
    31     3    21    1
    32    21    22    1
    33    22    23    1
    34     9     4    1
    35    19    12   ar
    36    30    25   ar
    37    23    21    1
    38    19     9    1
    39     6    20    1
@<TRIPOS>MOLECULE
*****
 35 39 0 0 0
SMALL
GASTEIGER

@<TRIPOS>ATOM
      1 O          63.6926   87.7287   12.8830 O.2     1  UNL1       -0.2747
      2 C          62.8850   88.3880   11.8046 C.2     1  UNL1        0.2294
      3 N          61.7177   87.6690   11.1960 N.am    1  UNL1       -0.2769
      4 C          63.2447   89.7665   11.3348 C.3     1  UNL1        0.1211
      5 C          62.7766   90.2476    9.9934 C.3     1  UNL1        0.0804
      6 N          63.1362   91.6259    9.5237 N.3     1  UNL1       -0.2969
      7 C          63.9639   92.5232   10.3954 C.3     1  UNL1        0.0714
      8 C          64.4320   92.0421   11.7368 C.3     1  UNL1        0.0490
      9 C          64.0724   90.6637   12.2065 C.3     1  UNL1        0.1224
     10 O          63.7929   89.3179   12.8073 O.3     1  UNL1       -0.3492
     11 C          64.4499   89.2663   14.1548 C.3     1  UNL1        0.1687
     12 C          65.1354   90.5802   14.3869 C.ar    1  UNL1        0.0079
     13 C          65.9419   91.1018   15.5389 C.ar    1  UNL1        0.0299
     14 C          66.5152   92.4870   15.4871 C.ar    1  UNL1        0.1671
     15 F          67.3217   93.0086   16.6392 F       1  UNL1       -0.2018
     16 C          66.2818   93.3506   14.2830 C.ar    1  UNL1        0.1671
     17 F          66.8551   94.7357   14.2311 F       1  UNL1       -0.2018
     18 C          65.4753   92.8290   13.1308 C.ar    1  UNL1        0.0297
     19 C          64.9021   91.4439   13.1827 C.ar    1  UNL1        0.0033
     20 H          62.2588   92.1150    9.3468 H       1  UNL1        0.1233
     21 C          60.9101   88.3284   10.1175 C.3     1  UNL1        0.0758
     22 C          60.0426   89.4602    9.6524 C.3     1  UNL1        0.0215
     23 C          60.3788   88.3387    8.7148 C.3     1  UNL1        0.0215
     24 C          61.3581   86.2906   11.6657 C.3     1  UNL1        0.1209
     25 C          62.2108   85.1194   11.2769 C.ar    1  UNL1        0.0082
     26 C          62.7131   84.9919    9.8693 C.ar    1  UNL1       -0.0018
     27 C          63.5659   83.8207    9.4805 C.ar    1  UNL1       -0.0003
     28 C          63.9163   82.7771   10.4993 C.ar    1  UNL1        0.0047
     29 C          63.4140   82.9046   11.9070 C.ar    1  UNL1        0.0817
     30 C          62.5612   84.0758   12.2958 C.ar    1  UNL1        0.0592
     31 CL         62.0589   84.2033   13.7034 Cl      1  UNL1       -0.0826
     32 C          63.7644   81.8610   12.9258 C.3     1  UNL1        0.4194
     33 F          64.1149   80.8173   13.9446 F       1  UNL1       -0.1658
     34 F          62.7221   80.9489   12.3500 F       1  UNL1       -0.1658
     35 F          64.8068   82.7731   13.5016 F       1  UNL1       -0.1658
@<TRIPOS>BOND
     1     1     2    2
     2     4     2    1
     3     4     5    1
     4     5     6    1
     5     6     7    1
     6     7     8    1
     7     9     8    1
     8     9    10    1
     9    10    11    1
    10    11    12    1
    11    12    13   ar
    12    13    14   ar
    13    14    15    1
    14    14    16   ar
    15    16    17    1
    16    16    18   ar
    17    18    19   ar
    18     2     3   am
    19     3    24    1
    20    24    25    1
    21    25    26   ar
    22    26    27   ar
    23    27    28   ar
    24    28    29   ar
    25    29    32    1
    26    32    33    1
    27    32    34    1
    28    32    35    1
    29    29    30   ar
    30    30    31    1
    31     3    21    1
    32    21    22    1
    33    22    23    1
    34     9     4    1
    35    19    12   ar
    36    30    25   ar
    37    23    21    1
    38    19     9    1
    39     6    20    1
@<TRIPOS>MOLECULE
*****
 35 39 0 0 0
SMALL
GASTEIGER

@<TRIPOS>ATOM
      1 O          63.0964   89.2161   14.8308 O.2     1  UNL1       -0.2747
      2 C          63.1008   89.6200   13.3863 C.2     1  UNL1        0.2294
      3 N          63.8279   90.8596   12.9564 N.am    1  UNL1       -0.2769
      4 C          62.3781   88.7844   12.3716 C.3     1  UNL1        0.1211
      5 C          61.3971   89.4243   11.4346 C.3     1  UNL1        0.0804
      6 N          60.6745   88.5886   10.4200 N.3     1  UNL1       -0.2969
      7 C          60.9329   87.1131   10.3423 C.3     1  UNL1        0.0714
      8 C          61.9140   86.4732   11.2794 C.3     1  UNL1        0.0490
      9 C          62.6366   87.3088   12.2940 C.3     1  UNL1        0.1224
     10 O          63.4301   88.0122   13.3550 O.3     1  UNL1       -0.3492
     11 C          64.2803   86.9913   14.0513 C.3     1  UNL1        0.1687
     12 C          64.0123   85.6569   13.4207 C.ar    1  UNL1        0.0079
     13 C          64.5620   84.2886   13.6951 C.ar    1  UNL1        0.0299
     14 C          64.0959   83.1164   12.8835 C.ar    1  UNL1        0.1671
     15 F          64.6456   81.7481   13.1578 F       1  UNL1       -0.2018
     16 C          63.0800   83.3126   11.7974 C.ar    1  UNL1        0.1671
     17 F          62.6139   82.1405   10.9857 F       1  UNL1       -0.2018
     18 C          62.5303   84.6810   11.5229 C.ar    1  UNL1        0.0297
     19 C          62.9964   85.8532   12.3346 C.ar    1  UNL1        0.0033
     20 H          60.9015   88.9759    9.5040 H       1  UNL1        0.1233
     21 C          63.8323   91.2635   11.5117 C.3     1  UNL1        0.0758
     22 C          64.4668   92.0036   10.3718 C.3     1  UNL1        0.0215
     23 C          63.2054   91.2230   10.1496 C.3     1  UNL1        0.0215
     24 C          64.5505   91.6952   13.9710 C.3     1  UNL1        0.1209
     25 C          66.0311   91.9049   13.8526 C.ar    1  UNL1        0.0082
     26 C          66.7389   91.5528   12.5778 C.ar    1  UNL1       -0.0018
     27 C          68.2194   91.7625   12.4594 C.ar    1  UNL1       -0.0003
     28 C          68.9922   92.3242   13.6158 C.ar    1  UNL1        0.0047
     29 C          68.2844   92.6764   14.8906 C.ar    1  UNL1        0.0817
     30 C          66.8038   92.4667   15.0090 C.ar    1  UNL1        0.0592
     31 CL         66.0960   92.8188   16.2838 Cl      1  UNL1       -0.0826
     32 C          69.0571   93.2382   16.0470 C.3     1  UNL1        0.4194
     33 F          69.8299   93.8000   17.2033 F       1  UNL1       -0.1658
     34 F          69.4181   91.8485   16.4809 F       1  UNL1       -0.1658
     35 F          68.6961   94.6279   15.6131 F       1  UNL1       -0.1658
@<TRIPOS>BOND
     1     1     2    2
     2     4     2    1
     3     4     5    1
     4     5     6    1
     5     6     7    1
     6     7     8    1
     7     9     8    1
     8     9    10    1
     9    10    11    1
    10    11    12    1
    11    12    13   ar
    12    13    14   ar
    13    14    15    1
    14    14    16   ar
    15    16    17    1
    16    16    18   ar
    17    18    19   ar
    18     2     3   am
    19     3    24    1
    20    24    25    1
    21    25    26   ar
    22    26    27   ar
    23    27    28   ar
    24    28    29   ar
    25    29    32    1
    26    32    33    1
    27    32    34    1
    28    32    35    1
    29    29    30   ar
    30    30    31    1
    31     3    21    1
    32    21    22    1
    33    22    23    1
    34     9     4    1
    35    19    12   ar
    36    30    25   ar
    37    23    21    1
    38    19     9    1
    39     6    20    1
@<TRIPOS>MOLECULE
*****
 35 39 0 0 0
SMALL
GASTEIGER

@<TRIPOS>ATOM
      1 O          61.5062   88.9805   11.8047 O.2     1  UNL1       -0.2747
      2 C          62.5172   88.4578   12.7817 C.2     1  UNL1        0.2294
      3 N          62.8452   86.9944   12.8109 N.am    1  UNL1       -0.2769
      4 C          63.2004   89.3986   13.7295 C.3     1  UNL1        0.1211
      5 C          63.1380   89.1507   15.2075 C.3     1  UNL1        0.0804
      6 N          63.8211   90.0915   16.1552 N.3     1  UNL1       -0.2969
      7 C          64.5668   91.2801   15.6249 C.3     1  UNL1        0.0714
      8 C          64.6292   91.5280   14.1469 C.3     1  UNL1        0.0490
      9 C          63.9460   90.5872   13.1991 C.3     1  UNL1        0.1224
     10 O          63.3153   89.7383   12.1353 O.3     1  UNL1       -0.3492
     11 C          63.6296   90.3539   10.8041 C.3     1  UNL1        0.1687
     12 C          64.4546   91.5834   11.0451 C.ar    1  UNL1        0.0079
     13 C          65.0529   92.5902   10.1080 C.ar    1  UNL1        0.0299
     14 C          65.8468   93.7412   10.6510 C.ar    1  UNL1        0.1671
     15 F          66.4452   94.7480    9.7139 F       1  UNL1       -0.2018
     16 C          66.0424   93.8854   12.1312 C.ar    1  UNL1        0.1671
     17 F          66.8363   95.0364   12.6742 F       1  UNL1       -0.2018
     18 C          65.4440   92.8785   13.0684 C.ar    1  UNL1        0.0297
     19 C          64.6501   91.7276   12.5253 C.ar    1  UNL1        0.0033
     20 H          64.4914   89.5373   16.6882 H       1  UNL1        0.1233
     21 C          63.8563   86.4718   13.7879 C.3     1  UNL1        0.0758
     22 C          65.1247   85.7219   14.0685 C.3     1  UNL1        0.0215
     23 C          64.3391   86.3164   15.1996 C.3     1  UNL1        0.0215
     24 C          62.1620   86.0537   11.8632 C.3     1  UNL1        0.1209
     25 C          62.7819   84.7244   11.5487 C.ar    1  UNL1        0.0082
     26 C          63.4821   84.5144   10.2389 C.ar    1  UNL1       -0.0018
     27 C          64.1020   83.1852    9.9245 C.ar    1  UNL1       -0.0003
     28 C          64.0218   82.0660   10.9199 C.ar    1  UNL1        0.0047
     29 C          63.3215   82.2759   12.2298 C.ar    1  UNL1        0.0817
     30 C          62.7016   83.6051   12.5442 C.ar    1  UNL1        0.0592
     31 CL         62.0014   83.8151   13.8540 Cl      1  UNL1       -0.0826
     32 C          63.2413   81.1567   13.2251 C.3     1  UNL1        0.4194
     33 F          63.1610   80.0374   14.2205 F       1  UNL1       -0.1658
     34 F          62.2804   80.4305   12.3311 F       1  UNL1       -0.1658
     35 F          64.2021   81.8829   14.1192 F       1  UNL1       -0.1658
@<TRIPOS>BOND
     1     1     2    2
     2     4     2    1
     3     4     5    1
     4     5     6    1
     5     6     7    1
     6     7     8    1
     7     9     8    1
     8     9    10    1
     9    10    11    1
    10    11    12    1
    11    12    13   ar
    12    13    14   ar
    13    14    15    1
    14    14    16   ar
    15    16    17    1
    16    16    18   ar
    17    18    19   ar
    18     2     3   am
    19     3    24    1
    20    24    25    1
    21    25    26   ar
    22    26    27   ar
    23    27    28   ar
    24    28    29   ar
    25    29    32    1
    26    32    33    1
    27    32    34    1
    28    32    35    1
    29    29    30   ar
    30    30    31    1
    31     3    21    1
    32    21    22    1
    33    22    23    1
    34     9     4    1
    35    19    12   ar
    36    30    25   ar
    37    23    21    1
    38    19     9    1
    39     6    20    1
@<TRIPOS>MOLECULE
*****
 35 39 0 0 0
SMALL
GASTEIGER

@<TRIPOS>ATOM
      1 O          62.4308   90.4618   12.1765 O.2     1  UNL1       -0.2747
      2 C          63.5031   90.7520   13.1843 C.2     1  UNL1        0.2294
      3 N          64.6038   91.7153   12.8518 N.am    1  UNL1       -0.2769
      4 C          63.4749   90.0790   14.5245 C.3     1  UNL1        0.1211
      5 C          63.4375   90.9033   15.7771 C.3     1  UNL1        0.0804
      6 N          63.4092   90.2302   17.1173 N.3     1  UNL1       -0.2969
      7 C          63.4184   88.7328   17.2049 C.3     1  UNL1        0.0714
      8 C          63.4558   87.9085   15.9523 C.3     1  UNL1        0.0490
      9 C          63.4840   88.5815   14.6121 C.3     1  UNL1        0.1224
     10 O          63.5149   89.1108   13.2089 O.3     1  UNL1       -0.3492
     11 C          63.5471   87.9396   12.2723 C.3     1  UNL1        0.1687
     12 C          63.5361   86.6864   13.0966 C.ar    1  UNL1        0.0079
     13 C          63.5565   85.2354   12.7174 C.ar    1  UNL1        0.0299
     14 C          63.5379   84.1809   13.7842 C.ar    1  UNL1        0.1671
     15 F          63.5583   82.7299   13.4049 F       1  UNL1       -0.2018
     16 C          63.4989   84.5777   15.2302 C.ar    1  UNL1        0.1671
     17 F          63.4804   83.5234   16.2970 F       1  UNL1       -0.2018
     18 C          63.4785   86.0289   15.6095 C.ar    1  UNL1        0.0297
     19 C          63.4971   87.0832   14.5428 C.ar    1  UNL1        0.0033
     20 H          62.5620   90.5476   17.5884 H       1  UNL1        0.1233
     21 C          65.6763   92.0056   13.8597 C.3     1  UNL1        0.0758
     22 C          66.9310   91.6002   14.5747 C.3     1  UNL1        0.0215
     23 C          66.2790   92.9137   14.8903 C.3     1  UNL1        0.0215
     24 C          64.6321   92.3884   11.5116 C.3     1  UNL1        0.1209
     25 C          65.9446   92.6813   10.8470 C.ar    1  UNL1        0.0082
     26 C          67.0668   91.6897   10.9334 C.ar    1  UNL1       -0.0018
     27 C          68.3792   91.9826   10.2687 C.ar    1  UNL1       -0.0003
     28 C          68.5695   93.2671    9.5178 C.ar    1  UNL1        0.0047
     29 C          67.4472   94.2587    9.4314 C.ar    1  UNL1        0.0817
     30 C          66.1348   93.9658   10.0960 C.ar    1  UNL1        0.0592
     31 CL         65.0126   94.9573   10.0097 Cl      1  UNL1       -0.0826
     32 C          67.6375   95.5431    8.6805 C.3     1  UNL1        0.4194
     33 F          67.8277   96.8276    7.9295 F       1  UNL1       -0.1658
     34 F          67.4535   94.8122    7.3836 F       1  UNL1       -0.1658
     35 F          67.8215   96.2741    9.9773 F       1  UNL1       -0.1658
@<TRIPOS>BOND
     1     1     2    2
     2     4     2    1
     3     4     5    1
     4     5     6    1
     5     6     7    1
     6     7     8    1
     7     9     8    1
     8     9    10    1
     9    10    11    1
    10    11    12    1
    11    12    13   ar
    12    13    14   ar
    13    14    15    1
    14    14    16   ar
    15    16    17    1
    16    16    18   ar
    17    18    19   ar
    18     2     3   am
    19     3    24    1
    20    24    25    1
    21    25    26   ar
    22    26    27   ar
    23    27    28   ar
    24    28    29   ar
    25    29    32    1
    26    32    33    1
    27    32    34    1
    28    32    35    1
    29    29    30   ar
    30    30    31    1
    31     3    21    1
    32    21    22    1
    33    22    23    1
    34     9     4    1
    35    19    12   ar
    36    30    25   ar
    37    23    21    1
    38    19     9    1
    39     6    20    1
@<TRIPOS>MOLECULE
*****
 35 39 0 0 0
SMALL
GASTEIGER

@<TRIPOS>ATOM
      1 O          63.9198   89.7915   10.2029 O.2     1  UNL1       -0.2747
      2 C          62.5152   89.4183   10.5739 C.2     1  UNL1        0.2294
      3 N          61.7458   90.2645   11.5445 N.am    1  UNL1       -0.2769
      4 C          61.8799   88.1988    9.9743 C.3     1  UNL1        0.1211
      5 C          61.0323   88.3232    8.7431 C.3     1  UNL1        0.0804
      6 N          60.3970   87.1038    8.1436 N.3     1  UNL1       -0.2969
      7 C          60.6095   85.7600    8.7753 C.3     1  UNL1        0.0714
      8 C          61.4571   85.6356   10.0065 C.3     1  UNL1        0.0490
      9 C          62.0924   86.8550   10.6060 C.3     1  UNL1        0.1224
     10 O          62.7881   87.9792   11.3148 O.3     1  UNL1       -0.3492
     11 C          63.5189   87.4036   12.4915 C.3     1  UNL1        0.1687
     12 C          63.2748   85.9237   12.5101 C.ar    1  UNL1        0.0079
     13 C          63.7414   84.8411   13.4375 C.ar    1  UNL1        0.0299
     14 C          63.3263   83.4193   13.1997 C.ar    1  UNL1        0.1671
     15 F          63.7929   82.3367   14.1271 F       1  UNL1       -0.2018
     16 C          62.4447   83.0803   12.0345 C.ar    1  UNL1        0.1671
     17 F          62.0297   81.6587   11.7967 F       1  UNL1       -0.2018
     18 C          61.9781   84.1630   11.1070 C.ar    1  UNL1        0.0297
     19 C          62.3931   85.5846   11.3448 C.ar    1  UNL1        0.0033
     20 H          60.7378   87.0355    7.1846 H       1  UNL1        0.1233
     21 C          60.3411   89.8912   11.9154 C.3     1  UNL1        0.0758
     22 C          59.3820   88.9704   12.6098 C.3     1  UNL1        0.0215
     23 C          58.8673   90.1654   11.8636 C.3     1  UNL1        0.0215
     24 C          62.3810   91.4839   12.1440 C.3     1  UNL1        0.1209
     25 C          63.4157   91.3383   13.2202 C.ar    1  UNL1        0.0082
     26 C          63.1177   90.5200   14.4414 C.ar    1  UNL1       -0.0018
     27 C          64.1525   90.3744   15.5176 C.ar    1  UNL1       -0.0003
     28 C          65.4852   91.0472   15.3725 C.ar    1  UNL1        0.0047
     29 C          65.7833   91.8655   14.1512 C.ar    1  UNL1        0.0817
     30 C          64.7486   92.0111   13.0750 C.ar    1  UNL1        0.0592
     31 CL         65.0466   92.8294   11.8538 Cl      1  UNL1       -0.0826
     32 C          67.1161   92.5382   14.0061 C.3     1  UNL1        0.4194
     33 F          68.4489   93.2110   13.8610 F       1  UNL1       -0.1658
     34 F          67.6872   91.2806   13.4211 F       1  UNL1       -0.1658
     35 F          66.5450   93.7958   14.5910 F       1  UNL1       -0.1658
@<TRIPOS>BOND
     1     1     2    2
     2     4     2    1
     3     4     5    1
     4     5     6    1
     5     6     7    1
     6     7     8    1
     7     9     8    1
     8     9    10    1
     9    10    11    1
    10    11    12    1
    11    12    13   ar
    12    13    14   ar
    13    14    15    1
    14    14    16   ar
    15    16    17    1
    16    16    18   ar
    17    18    19   ar
    18     2     3   am
    19     3    24    1
    20    24    25    1
    21    25    26   ar
    22    26    27   ar
    23    27    28   ar
    24    28    29   ar
    25    29    32    1
    26    32    33    1
    27    32    34    1
    28    32    35    1
    29    29    30   ar
    30    30    31    1
    31     3    21    1
    32    21    22    1
    33    22    23    1
    34     9     4    1
    35    19    12   ar
    36    30    25   ar
    37    23    21    1
    38    19     9    1
    39     6    20    1
@<TRIPOS>MOLECULE
*****
 35 39 0 0 0
SMALL
GASTEIGER

@<TRIPOS>ATOM
      1 O          45.7583   75.3414   17.2041 O.2     1  UNL1       -0.2747
      2 C          45.4172   74.3246   18.2527 C.2     1  UNL1        0.2294
      3 N          44.3547   74.6225   19.2689 N.am    1  UNL1       -0.2769
      4 C          46.1385   73.0098   18.2853 C.3     1  UNL1        0.1211
      5 C          47.0326   72.6732   19.4417 C.3     1  UNL1        0.0804
      6 N          47.7538   71.3584   19.4742 N.3     1  UNL1       -0.2969
      7 C          47.5810   70.3802   18.3503 C.3     1  UNL1        0.0714
      8 C          46.6869   70.7167   17.1939 C.3     1  UNL1        0.0490
      9 C          45.9656   72.0315   17.1614 C.3     1  UNL1        0.1224
     10 O          45.1839   73.3004   16.9914 O.3     1  UNL1       -0.3492
     11 C          44.4314   73.2114   15.6969 C.3     1  UNL1        0.1687
     12 C          44.7480   71.8875   15.0667 C.ar    1  UNL1        0.0079
     13 C          44.2954   71.2518   13.7858 C.ar    1  UNL1        0.0299
     14 C          44.7910   69.8868   13.4098 C.ar    1  UNL1        0.1671
     15 F          44.3385   69.2511   12.1289 F       1  UNL1       -0.2018
     16 C          45.7392   69.1576   14.3149 C.ar    1  UNL1        0.1671
     17 F          46.2348   67.7927   13.9390 F       1  UNL1       -0.2018
     18 C          46.1918   69.7933   15.5960 C.ar    1  UNL1        0.0297
     19 C          45.6962   71.1583   15.9719 C.ar    1  UNL1        0.0033
     20 H          47.4597   70.8822   20.3269 H       1  UNL1        0.1233
     21 C          44.0136   73.6056   20.3175 C.3     1  UNL1        0.0758
     22 C          43.6514   72.1997   20.6945 C.3     1  UNL1        0.0215
     23 C          43.7850   73.2503   21.7568 C.3     1  UNL1        0.0215
     24 C          43.6335   75.9373   19.2364 C.3     1  UNL1        0.1209
     25 C          44.1020   77.0713   20.0992 C.ar    1  UNL1        0.0082
     26 C          43.8311   77.0529   21.5744 C.ar    1  UNL1       -0.0018
     27 C          44.2996   78.1869   22.4372 C.ar    1  UNL1       -0.0003
     28 C          45.0390   79.3394   21.8248 C.ar    1  UNL1        0.0047
     29 C          45.3099   79.3579   20.3495 C.ar    1  UNL1        0.0817
     30 C          44.8414   78.2238   19.4867 C.ar    1  UNL1        0.0592
     31 CL         45.1123   78.2423   18.0115 Cl      1  UNL1       -0.0826
     32 C          46.0493   80.5104   19.7372 C.3     1  UNL1        0.4194
     33 F          46.7887   81.6628   19.1248 F       1  UNL1       -0.1658
     34 F          47.3419   79.7667   19.8984 F       1  UNL1       -0.1658
     35 F          44.7567   81.2540   19.5759 F       1  UNL1       -0.1658
@<TRIPOS>BOND
     1     1     2    2
     2     4     2    1
     3     4     5    1
     4     5     6    1
     5     6     7    1
     6     7     8    1
     7     9     8    1
     8     9    10    1
     9    10    11    1
    10    11    12    1
    11    12    13   ar
    12    13    14   ar
    13    14    15    1
    14    14    16   ar
    15    16    17    1
    16    16    18   ar
    17    18    19   ar
    18     2     3   am
    19     3    24    1
    20    24    25    1
    21    25    26   ar
    22    26    27   ar
    23    27    28   ar
    24    28    29   ar
    25    29    32    1
    26    32    33    1
    27    32    34    1
    28    32    35    1
    29    29    30   ar
    30    30    31    1
    31     3    21    1
    32    21    22    1
    33    22    23    1
    34     9     4    1
    35    19    12   ar
    36    30    25   ar
    37    23    21    1
    38    19     9    1
    39     6    20    1
@<TRIPOS>MOLECULE
*****
 35 39 0 0 0
SMALL
GASTEIGER

@<TRIPOS>ATOM
      1 O          62.5756   88.6418   14.0526 O.2     1  UNL1       -0.2747
      2 C          62.6556   89.5797   12.8847 C.2     1  UNL1        0.2294
      3 N          63.9371   90.3006   12.5881 N.am    1  UNL1       -0.2769
      4 C          61.4540   89.7966   12.0134 C.3     1  UNL1        0.1211
      5 C          60.5273   90.9441   12.2859 C.3     1  UNL1        0.0804
      6 N          59.3258   91.1610   11.4145 N.3     1  UNL1       -0.2969
      7 C          59.0510   90.2304   10.2707 C.3     1  UNL1        0.0714
      8 C          59.9777   89.0828    9.9982 C.3     1  UNL1        0.0490
      9 C          61.1792   88.8659   10.8695 C.3     1  UNL1        0.1224
     10 O          62.4136   88.5248   11.6506 O.3     1  UNL1       -0.3492
     11 C          63.0316   87.3060   11.0320 C.3     1  UNL1        0.1687
     12 C          62.1792   86.8939    9.8685 C.ar    1  UNL1        0.0079
     13 C          62.2976   85.7654    8.8875 C.ar    1  UNL1        0.0299
     14 C          61.2711   85.6009    7.8060 C.ar    1  UNL1        0.1671
     15 F          61.3895   84.4724    6.8251 F       1  UNL1       -0.2018
     16 C          60.1264   86.5650    7.7057 C.ar    1  UNL1        0.1671
     17 F          59.1000   86.4005    6.6243 F       1  UNL1       -0.2018
     18 C          60.0080   87.6935    8.6867 C.ar    1  UNL1        0.0297
     19 C          61.0344   87.8580    9.7681 C.ar    1  UNL1        0.0033
     20 H          59.4146   92.0966   11.0181 H       1  UNL1        0.1233
     21 C          64.0170   91.2385   11.4202 C.3     1  UNL1        0.0758
     22 C          63.5172   91.6895   10.0798 C.3     1  UNL1        0.0215
     23 C          64.6553   92.4118   10.7376 C.3     1  UNL1        0.0215
     24 C          65.1387   90.0837   13.4594 C.3     1  UNL1        0.1209
     25 C          65.4128   91.0136   14.6040 C.ar    1  UNL1        0.0082
     26 C          64.3835   91.2046   15.6783 C.ar    1  UNL1       -0.0018
     27 C          64.6577   92.1345   16.8229 C.ar    1  UNL1       -0.0003
     28 C          65.9611   92.8734   16.8932 C.ar    1  UNL1        0.0047
     29 C          66.9905   92.6825   15.8189 C.ar    1  UNL1        0.0817
     30 C          66.7163   91.7526   14.6743 C.ar    1  UNL1        0.0592
     31 CL         67.7456   91.5616   13.6001 Cl      1  UNL1       -0.0826
     32 C          68.2939   93.4214   15.8893 C.3     1  UNL1        0.4194
     33 F          69.5973   94.1604   15.9596 F       1  UNL1       -0.1658
     34 F          68.8826   92.3058   16.7009 F       1  UNL1       -0.1658
     35 F          67.7052   94.5371   15.0776 F       1  UNL1       -0.1658
@<TRIPOS>BOND
     1     1     2    2
     2     4     2    1
     3     4     5    1
     4     5     6    1
     5     6     7    1
     6     7     8    1
     7     9     8    1
     8     9    10    1
     9    10    11    1
    10    11    12    1
    11    12    13   ar
    12    13    14   ar
    13    14    15    1
    14    14    16   ar
    15    16    17    1
    16    16    18   ar
    17    18    19   ar
    18     2     3   am
    19     3    24    1
    20    24    25    1
    21    25    26   ar
    22    26    27   ar
    23    27    28   ar
    24    28    29   ar
    25    29    32    1
    26    32    33    1
    27    32    34    1
    28    32    35    1
    29    29    30   ar
    30    30    31    1
    31     3    21    1
    32    21    22    1
    33    22    23    1
    34     9     4    1
    35    19    12   ar
    36    30    25   ar
    37    23    21    1
    38    19     9    1
    39     6    20    1
