@<TRIPOS>MOLECULE
*****
 26 29 0 0 0
SMALL
GASTEIGER

@<TRIPOS>ATOM
      1 F          58.6267   89.2869    6.3703 F       1  UNL1       -0.2042
      2 C          59.3903   88.6101    7.4699 C.ar    1  UNL1        0.1402
      3 C          59.3388   87.1175    7.6102 C.ar    1  UNL1        0.0311
      4 C          60.1023   86.4408    8.7097 C.ar    1  UNL1        0.0195
      5 C          60.9175   87.2565    9.6689 C.ar    1  UNL1        0.0595
      6 C          60.9690   88.7491    9.5286 C.ar    1  UNL1        0.0164
      7 C          60.2055   89.4258    8.4291 C.ar    1  UNL1        0.0308
      8 C          61.8518   89.2866   10.6157 C.ar    1  UNL1        0.0068
      9 C          62.3459   88.1263   11.4279 C.ar    1  UNL1        0.0358
     10 N          61.7684   86.8717   10.8427 N.ar    1  UNL1       -0.3307
     11 C          63.2577   88.3621   12.5953 C.3     1  UNL1        0.0606
     12 C          63.6755   89.7582   12.9505 C.3     1  UNL1        0.0751
     13 N          63.1815   90.9185   12.1384 N.3     1  UNL1       -0.2934
     14 C          62.2696   90.6827   10.9710 C.3     1  UNL1        0.0968
     15 H          64.0063   91.3966   11.7759 H       1  UNL1        0.1236
     16 C          62.0010   85.4770   11.3434 C.3     1  UNL1        0.1096
     17 C          63.0975   84.6411   10.7525 C.3     1  UNL1        0.0718
     18 C          63.5381   83.3847   11.4435 C.3     1  UNL1        0.2074
     19 O          64.4461   83.4629   12.6349 O.3     1  UNL1       -0.4754
     20 C          63.9898   84.1627   13.8807 C.ar    1  UNL1        0.1386
     21 C          62.7592   83.6918   14.5976 C.ar    1  UNL1        0.0378
     22 C          62.3029   84.3916   15.8435 C.ar    1  UNL1        0.0145
     23 C          63.0773   85.5622   16.3725 C.ar    1  UNL1        0.0579
     24 CL         62.6211   86.2620   17.6184 Cl      1  UNL1       -0.0822
     25 C          64.3079   86.0331   15.6556 C.ar    1  UNL1        0.0145
     26 C          64.7642   85.3334   14.4097 C.ar    1  UNL1        0.0378
@<TRIPOS>BOND
     1     1     2    1
     2     2     3   ar
     3     3     4   ar
     4     4     5   ar
     5     5     6   ar
     6     6     7   ar
     7     6     8   ar
     8     8     9   ar
     9     9    10   ar
    10    10    16    1
    11    16    17    1
    12    17    18    1
    13    18    19    1
    14    19    20    1
    15    20    21   ar
    16    21    22   ar
    17    22    23   ar
    18    23    24    1
    19    23    25   ar
    20    25    26   ar
    21     9    11    1
    22    11    12    1
    23    12    13    1
    24    13    14    1
    25     7     2   ar
    26    14     8    1
    27    10     5   ar
    28    26    20   ar
    29    13    15    1
@<TRIPOS>MOLECULE
*****
 26 29 0 0 0
SMALL
GASTEIGER

@<TRIPOS>ATOM
      1 F          63.8579   91.9744   12.6621 F       1  UNL1       -0.2042
      2 C          63.3694   90.6143   12.2601 C.ar    1  UNL1        0.1402
      3 C          63.8111   89.4022   13.0254 C.ar    1  UNL1        0.0311
      4 C          63.3226   88.0422   12.6234 C.ar    1  UNL1        0.0195
      5 C          62.3924   87.8942   11.4560 C.ar    1  UNL1        0.0595
      6 C          61.9507   89.1063   10.6906 C.ar    1  UNL1        0.0164
      7 C          62.4392   90.4663   11.0926 C.ar    1  UNL1        0.0308
      8 C          61.0352   88.6528    9.5923 C.ar    1  UNL1        0.0068
      9 C          60.9110   87.1605    9.6789 C.ar    1  UNL1        0.0358
     10 N          61.7498   86.6917   10.8307 N.ar    1  UNL1       -0.3307
     11 C          60.0503   86.4213    8.6977 C.3     1  UNL1        0.0606
     12 C          59.3137   87.1745    7.6300 C.3     1  UNL1        0.0751
     13 N          59.4378   88.6668    7.5434 N.3     1  UNL1       -0.2934
     14 C          60.2985   89.4060    8.5246 C.3     1  UNL1        0.0968
     15 H          58.4954   89.0464    7.6341 H       1  UNL1        0.1236
     16 C          61.9167   85.2698   11.2786 C.3     1  UNL1        0.1096
     17 C          63.0497   84.4437   10.7456 C.3     1  UNL1        0.0718
     18 C          63.5027   83.2228   11.4901 C.3     1  UNL1        0.2074
     19 O          64.4462   83.3578   12.6483 O.3     1  UNL1       -0.4754
     20 C          64.0186   84.0966   13.8818 C.ar    1  UNL1        0.1386
     21 C          64.8310   85.2540   14.3824 C.ar    1  UNL1        0.0378
     22 C          64.4033   85.9928   15.6158 C.ar    1  UNL1        0.0145
     23 C          63.1633   85.5741   16.3487 C.ar    1  UNL1        0.0579
     24 CL         62.7356   86.3129   17.5821 Cl      1  UNL1       -0.0822
     25 C          62.3510   84.4168   15.8481 C.ar    1  UNL1        0.0145
     26 C          62.7786   83.6780   14.6147 C.ar    1  UNL1        0.0378
@<TRIPOS>BOND
     1     1     2    1
     2     2     3   ar
     3     3     4   ar
     4     4     5   ar
     5     5     6   ar
     6     6     7   ar
     7     6     8   ar
     8     8     9   ar
     9     9    10   ar
    10    10    16    1
    11    16    17    1
    12    17    18    1
    13    18    19    1
    14    19    20    1
    15    20    21   ar
    16    21    22   ar
    17    22    23   ar
    18    23    24    1
    19    23    25   ar
    20    25    26   ar
    21     9    11    1
    22    11    12    1
    23    12    13    1
    24    13    14    1
    25     7     2   ar
    26    14     8    1
    27    10     5   ar
    28    26    20   ar
    29    13    15    1
@<TRIPOS>MOLECULE
*****
 26 29 0 0 0
SMALL
GASTEIGER

@<TRIPOS>ATOM
      1 F          60.7995   86.9317    8.5559 F       1  UNL1       -0.2042
      2 C          61.5702   86.9319    9.8428 C.ar    1  UNL1        0.1402
      3 C          61.9103   85.6340   10.5135 C.ar    1  UNL1        0.0311
      4 C          62.6810   85.6342   11.8003 C.ar    1  UNL1        0.0195
      5 C          63.1115   86.9323   12.4165 C.ar    1  UNL1        0.0595
      6 C          62.7713   88.2302   11.7459 C.ar    1  UNL1        0.0164
      7 C          62.0007   88.2300   10.4590 C.ar    1  UNL1        0.0308
      8 C          63.3258   89.3441   12.5836 C.ar    1  UNL1        0.0068
      9 C          64.0086   88.7347   13.7720 C.ar    1  UNL1        0.0358
     10 N          63.8762   87.2441   13.6687 N.ar    1  UNL1       -0.3307
     11 C          64.6627   89.6158   14.7946 C.3     1  UNL1        0.0606
     12 C          64.6340   91.1063   14.6288 C.3     1  UNL1        0.0751
     13 N          63.9512   91.7157   13.4404 N.3     1  UNL1       -0.2934
     14 C          63.2971   90.8346   12.4178 C.3     1  UNL1        0.0968
     15 H          64.6538   92.2671   12.9477 H       1  UNL1        0.1236
     16 C          64.4140   86.2414   14.6461 C.3     1  UNL1        0.1096
     17 C          63.6343   85.9071   15.8833 C.3     1  UNL1        0.0718
     18 C          62.6643   84.7630   15.8721 C.3     1  UNL1        0.2074
     19 O          63.1641   83.3575   15.7152 O.3     1  UNL1       -0.4754
     20 C          63.1612   82.7070   14.3636 C.ar    1  UNL1        0.1386
     21 C          62.0731   81.7411   13.9985 C.ar    1  UNL1        0.0378
     22 C          62.0701   81.0906   12.6469 C.ar    1  UNL1        0.0145
     23 C          63.1551   81.4060   11.6603 C.ar    1  UNL1        0.0579
     24 CL         63.1521   80.7555   10.3087 Cl      1  UNL1       -0.0822
     25 C          64.2431   82.3719   12.0254 C.ar    1  UNL1        0.0145
     26 C          64.2462   83.0224   13.3770 C.ar    1  UNL1        0.0378
@<TRIPOS>BOND
     1     1     2    1
     2     2     3   ar
     3     3     4   ar
     4     4     5   ar
     5     5     6   ar
     6     6     7   ar
     7     6     8   ar
     8     8     9   ar
     9     9    10   ar
    10    10    16    1
    11    16    17    1
    12    17    18    1
    13    18    19    1
    14    19    20    1
    15    20    21   ar
    16    21    22   ar
    17    22    23   ar
    18    23    24    1
    19    23    25   ar
    20    25    26   ar
    21     9    11    1
    22    11    12    1
    23    12    13    1
    24    13    14    1
    25     7     2   ar
    26    14     8    1
    27    10     5   ar
    28    26    20   ar
    29    13    15    1
@<TRIPOS>MOLECULE
*****
 26 29 0 0 0
SMALL
GASTEIGER

@<TRIPOS>ATOM
      1 F          61.0294   89.7351    8.6456 F       1  UNL1       -0.2042
      2 C          61.7783   89.6253    9.9407 C.ar    1  UNL1        0.1402
      3 C          61.5540   88.4451   10.8390 C.ar    1  UNL1        0.0311
      4 C          62.3029   88.3353   12.1341 C.ar    1  UNL1        0.0195
      5 C          63.2760   89.4057   12.5308 C.ar    1  UNL1        0.0595
      6 C          63.5003   90.5858   11.6325 C.ar    1  UNL1        0.0164
      7 C          62.7514   90.6956   10.3375 C.ar    1  UNL1        0.0308
      8 C          64.5151   91.4780   12.2839 C.ar    1  UNL1        0.0068
      9 C          64.9180   90.8492   13.5848 C.ar    1  UNL1        0.0358
     10 N          64.1522   89.5684   13.7374 N.ar    1  UNL1       -0.3307
     11 C          65.9302   91.5240   14.4623 C.3     1  UNL1        0.0606
     12 C          66.5394   92.8277   14.0389 C.3     1  UNL1        0.0751
     13 N          66.1365   93.4565   12.7380 N.3     1  UNL1       -0.2934
     14 C          65.1243   92.7816   11.8605 C.3     1  UNL1        0.0968
     15 H          66.9867   93.5566   12.1836 H       1  UNL1        0.1236
     16 C          64.2461   88.6174   14.8936 C.3     1  UNL1        0.1096
     17 C          64.5112   87.1616   14.6476 C.3     1  UNL1        0.0718
     18 C          63.9471   86.1289   15.5779 C.3     1  UNL1        0.2074
     19 O          62.7286   85.3489   15.1823 O.3     1  UNL1       -0.4754
     20 C          62.8197   84.3126   14.1016 C.ar    1  UNL1        0.1386
     21 C          62.9864   82.8660   14.4618 C.ar    1  UNL1        0.0378
     22 C          63.0775   81.8297   13.3811 C.ar    1  UNL1        0.0145
     23 C          63.0020   82.2400   11.9403 C.ar    1  UNL1        0.0579
     24 CL         63.0932   81.2037   10.8596 Cl      1  UNL1       -0.0822
     25 C          62.8354   83.6865   11.5802 C.ar    1  UNL1        0.0145
     26 C          62.7442   84.7229   12.6608 C.ar    1  UNL1        0.0378
@<TRIPOS>BOND
     1     1     2    1
     2     2     3   ar
     3     3     4   ar
     4     4     5   ar
     5     5     6   ar
     6     6     7   ar
     7     6     8   ar
     8     8     9   ar
     9     9    10   ar
    10    10    16    1
    11    16    17    1
    12    17    18    1
    13    18    19    1
    14    19    20    1
    15    20    21   ar
    16    21    22   ar
    17    22    23   ar
    18    23    24    1
    19    23    25   ar
    20    25    26   ar
    21     9    11    1
    22    11    12    1
    23    12    13    1
    24    13    14    1
    25     7     2   ar
    26    14     8    1
    27    10     5   ar
    28    26    20   ar
    29    13    15    1
@<TRIPOS>MOLECULE
*****
 26 29 0 0 0
SMALL
GASTEIGER

@<TRIPOS>ATOM
      1 F          67.0053   94.5084   11.1936 F       1  UNL1       -0.2042
      2 C          66.2111   93.3829   11.7874 C.ar    1  UNL1        0.1402
      3 C          66.5182   92.8978   13.1732 C.ar    1  UNL1        0.0311
      4 C          65.7240   91.7723   13.7670 C.ar    1  UNL1        0.0195
      5 C          64.6228   91.1319   12.9750 C.ar    1  UNL1        0.0595
      6 C          64.3157   91.6170   11.5892 C.ar    1  UNL1        0.0164
      7 C          65.1099   92.7425   10.9954 C.ar    1  UNL1        0.0308
      8 C          63.1801   90.7973   11.0522 C.ar    1  UNL1        0.0068
      9 C          62.7853   89.8056   12.1060 C.ar    1  UNL1        0.0358
     10 N          63.6769   90.0124   13.2944 N.ar    1  UNL1       -0.3307
     11 C          61.6649   88.8424   11.8474 C.3     1  UNL1        0.0606
     12 C          60.9394   88.8709   10.5349 C.3     1  UNL1        0.0751
     13 N          61.3342   89.8626    9.4810 N.3     1  UNL1       -0.2934
     14 C          62.4546   90.8258    9.7397 C.3     1  UNL1        0.0968
     15 H          60.5058   90.4221    9.2781 H       1  UNL1        0.1236
     16 C          63.6308   89.2360   14.5770 C.3     1  UNL1        0.1096
     17 C          64.5943   88.1095   14.8069 C.3     1  UNL1        0.0718
     18 C          64.1233   86.6886   14.7120 C.3     1  UNL1        0.2074
     19 O          63.4932   86.1905   13.4452 O.3     1  UNL1       -0.4754
     20 C          63.2735   84.7202   13.2446 C.ar    1  UNL1        0.1386
     21 C          63.4014   83.7776   14.4045 C.ar    1  UNL1        0.0378
     22 C          63.1817   82.3074   14.2039 C.ar    1  UNL1        0.0145
     23 C          62.8342   81.7798   12.8434 C.ar    1  UNL1        0.0579
     24 CL         62.6146   80.3096   12.6428 Cl      1  UNL1       -0.0822
     25 C          62.7065   82.7223   11.6836 C.ar    1  UNL1        0.0145
     26 C          62.9261   84.1926   11.8841 C.ar    1  UNL1        0.0378
@<TRIPOS>BOND
     1     1     2    1
     2     2     3   ar
     3     3     4   ar
     4     4     5   ar
     5     5     6   ar
     6     6     7   ar
     7     6     8   ar
     8     8     9   ar
     9     9    10   ar
    10    10    16    1
    11    16    17    1
    12    17    18    1
    13    18    19    1
    14    19    20    1
    15    20    21   ar
    16    21    22   ar
    17    22    23   ar
    18    23    24    1
    19    23    25   ar
    20    25    26   ar
    21     9    11    1
    22    11    12    1
    23    12    13    1
    24    13    14    1
    25     7     2   ar
    26    14     8    1
    27    10     5   ar
    28    26    20   ar
    29    13    15    1
@<TRIPOS>MOLECULE
*****
 26 29 0 0 0
SMALL
GASTEIGER

@<TRIPOS>ATOM
      1 F          62.8927   80.4021   12.2442 F       1  UNL1       -0.2042
      2 C          63.0996   81.8451   12.5982 C.ar    1  UNL1        0.1402
      3 C          63.7848   82.2118   13.8811 C.ar    1  UNL1        0.0311
      4 C          63.9917   83.6547   14.2350 C.ar    1  UNL1        0.0195
      5 C          63.5133   84.7309   13.3060 C.ar    1  UNL1        0.0595
      6 C          62.8281   84.3641   12.0230 C.ar    1  UNL1        0.0164
      7 C          62.6213   82.9212   11.6691 C.ar    1  UNL1        0.0308
      8 C          62.4673   85.6340   11.3107 C.ar    1  UNL1        0.0068
      9 C          62.9295   86.7855   12.1535 C.ar    1  UNL1        0.0358
     10 N          63.5760   86.2274   13.3866 N.ar    1  UNL1       -0.3307
     11 C          62.7021   88.1936   11.6892 C.3     1  UNL1        0.0606
     12 C          62.0124   88.4500   10.3821 C.3     1  UNL1        0.0751
     13 N          61.5502   87.2985    9.5394 N.3     1  UNL1       -0.2934
     14 C          61.7776   85.8904   10.0037 C.3     1  UNL1        0.0968
     15 H          62.0151   87.3894    8.6360 H       1  UNL1        0.1236
     16 C          64.1792   87.0256   14.5042 C.3     1  UNL1        0.1096
     17 C          64.4073   88.4986   14.3356 C.3     1  UNL1        0.0718
     18 C          63.6417   89.4772   15.1760 C.3     1  UNL1        0.2074
     19 O          63.5363   90.9112   14.7488 O.3     1  UNL1       -0.4754
     20 C          64.4154   91.4332   13.6512 C.ar    1  UNL1        0.1386
     21 C          65.8129   91.8829   13.9594 C.ar    1  UNL1        0.0378
     22 C          66.6920   92.4050   12.8618 C.ar    1  UNL1        0.0145
     23 C          66.1737   92.4773   11.4561 C.ar    1  UNL1        0.0579
     24 CL         67.0528   92.9994   10.3585 Cl      1  UNL1       -0.0822
     25 C          64.7763   92.0276   11.1480 C.ar    1  UNL1        0.0145
     26 C          63.8971   91.5056   12.2455 C.ar    1  UNL1        0.0378
@<TRIPOS>BOND
     1     1     2    1
     2     2     3   ar
     3     3     4   ar
     4     4     5   ar
     5     5     6   ar
     6     6     7   ar
     7     6     8   ar
     8     8     9   ar
     9     9    10   ar
    10    10    16    1
    11    16    17    1
    12    17    18    1
    13    18    19    1
    14    19    20    1
    15    20    21   ar
    16    21    22   ar
    17    22    23   ar
    18    23    24    1
    19    23    25   ar
    20    25    26   ar
    21     9    11    1
    22    11    12    1
    23    12    13    1
    24    13    14    1
    25     7     2   ar
    26    14     8    1
    27    10     5   ar
    28    26    20   ar
    29    13    15    1
@<TRIPOS>MOLECULE
*****
 26 29 0 0 0
SMALL
GASTEIGER

@<TRIPOS>ATOM
      1 F          63.2603   83.6385   12.7174 F       1  UNL1       -0.2042
      2 C          62.9209   85.0205   12.2430 C.ar    1  UNL1        0.1402
      3 C          63.4891   86.2162   12.9483 C.ar    1  UNL1        0.0311
      4 C          63.1497   87.5981   12.4738 C.ar    1  UNL1        0.0195
      5 C          62.2422   87.7843   11.2940 C.ar    1  UNL1        0.0595
      6 C          61.6740   86.5886   10.5888 C.ar    1  UNL1        0.0164
      7 C          62.0134   85.2067   11.0632 C.ar    1  UNL1        0.0308
      8 C          60.8138   87.0801    9.4625 C.ar    1  UNL1        0.0068
      9 C          60.8503   88.5796    9.4717 C.ar    1  UNL1        0.0358
     10 N          61.7330   89.0148   10.6037 N.ar    1  UNL1       -0.3307
     11 C          60.0750   89.3550    8.4482 C.3     1  UNL1        0.0606
     12 C          59.2632   88.6308    7.4155 C.3     1  UNL1        0.0751
     13 N          59.2267   87.1313    7.4063 N.3     1  UNL1       -0.2934
     14 C          60.0020   86.3559    8.4298 C.3     1  UNL1        0.0968
     15 H          59.5670   86.8341    6.4918 H       1  UNL1        0.1236
     16 C          62.0509   90.4318   10.9793 C.3     1  UNL1        0.1096
     17 C          63.2237   91.1282   10.3549 C.3     1  UNL1        0.0718
     18 C          64.2918   91.7238   11.2235 C.3     1  UNL1        0.2074
     19 O          64.1512   91.6872   12.7164 O.3     1  UNL1       -0.4754
     20 C          65.3540   91.8953   13.5882 C.ar    1  UNL1        0.1386
     21 C          65.1852   92.0814   15.0671 C.ar    1  UNL1        0.0378
     22 C          66.3880   92.2895   15.9389 C.ar    1  UNL1        0.0145
     23 C          67.7595   92.3116   15.3319 C.ar    1  UNL1        0.0579
     24 CL         68.9623   92.5198   16.2037 Cl      1  UNL1       -0.0822
     25 C          67.9282   92.1256   13.8531 C.ar    1  UNL1        0.0145
     26 C          66.7255   91.9174   12.9812 C.ar    1  UNL1        0.0378
@<TRIPOS>BOND
     1     1     2    1
     2     2     3   ar
     3     3     4   ar
     4     4     5   ar
     5     5     6   ar
     6     6     7   ar
     7     6     8   ar
     8     8     9   ar
     9     9    10   ar
    10    10    16    1
    11    16    17    1
    12    17    18    1
    13    18    19    1
    14    19    20    1
    15    20    21   ar
    16    21    22   ar
    17    22    23   ar
    18    23    24    1
    19    23    25   ar
    20    25    26   ar
    21     9    11    1
    22    11    12    1
    23    12    13    1
    24    13    14    1
    25     7     2   ar
    26    14     8    1
    27    10     5   ar
    28    26    20   ar
    29    13    15    1
@<TRIPOS>MOLECULE
*****
 26 29 0 0 0
SMALL
GASTEIGER

@<TRIPOS>ATOM
      1 F          64.2600   84.0944   14.1414 F       1  UNL1       -0.2042
      2 C          63.8363   85.4004   13.5373 C.ar    1  UNL1        0.1402
      3 C          64.3004   86.6922   14.1422 C.ar    1  UNL1        0.0311
      4 C          63.8766   87.9982   13.5381 C.ar    1  UNL1        0.0195
      5 C          62.9889   88.0123   12.3291 C.ar    1  UNL1        0.0595
      6 C          62.5248   86.7205   11.7242 C.ar    1  UNL1        0.0164
      7 C          62.9485   85.4146   12.3283 C.ar    1  UNL1        0.0308
      8 C          61.6613   87.0462   10.5417 C.ar    1  UNL1        0.0068
      9 C          61.5916   88.5393   10.4157 C.ar    1  UNL1        0.0358
     10 N          62.4121   89.1363   11.5204 N.ar    1  UNL1       -0.3307
     11 C          60.7901   89.1622    9.3115 C.3     1  UNL1        0.0606
     12 C          60.0582   88.2921    8.3331 C.3     1  UNL1        0.0751
     13 N          60.1279   86.7990    8.4591 N.3     1  UNL1       -0.2934
     14 C          60.9294   86.1761    9.5633 C.3     1  UNL1        0.0968
     15 H          60.5117   86.4471    7.5820 H       1  UNL1        0.1236
     16 C          62.6195   90.6005   11.7722 C.3     1  UNL1        0.1096
     17 C          63.9478   91.2316   11.4764 C.3     1  UNL1        0.0718
     18 C          64.7366   91.8714   12.5803 C.3     1  UNL1        0.2074
     19 O          66.1780   92.2256   12.3641 O.3     1  UNL1       -0.4754
     20 C          66.5507   93.2643   11.3481 C.ar    1  UNL1        0.1386
     21 C          66.1696   94.6986   11.5673 C.ar    1  UNL1        0.0378
     22 C          66.5423   95.7373   10.5513 C.ar    1  UNL1        0.0145
     23 C          67.2960   95.3418    9.3162 C.ar    1  UNL1        0.0579
     24 CL         67.6687   96.3806    8.3002 Cl      1  UNL1       -0.0822
     25 C          67.6771   93.9077    9.0971 C.ar    1  UNL1        0.0145
     26 C          67.3044   92.8689   10.1130 C.ar    1  UNL1        0.0378
@<TRIPOS>BOND
     1     1     2    1
     2     2     3   ar
     3     3     4   ar
     4     4     5   ar
     5     5     6   ar
     6     6     7   ar
     7     6     8   ar
     8     8     9   ar
     9     9    10   ar
    10    10    16    1
    11    16    17    1
    12    17    18    1
    13    18    19    1
    14    19    20    1
    15    20    21   ar
    16    21    22   ar
    17    22    23   ar
    18    23    24    1
    19    23    25   ar
    20    25    26   ar
    21     9    11    1
    22    11    12    1
    23    12    13    1
    24    13    14    1
    25     7     2   ar
    26    14     8    1
    27    10     5   ar
    28    26    20   ar
    29    13    15    1
@<TRIPOS>MOLECULE
*****
 26 29 0 0 0
SMALL
GASTEIGER

@<TRIPOS>ATOM
      1 F          63.4831   81.2752   13.8103 F       1  UNL1       -0.2042
      2 C          63.5538   82.7718   13.7361 C.ar    1  UNL1        0.1402
      3 C          64.2797   83.5419   14.7991 C.ar    1  UNL1        0.0311
      4 C          64.3504   85.0384   14.7250 C.ar    1  UNL1        0.0195
      5 C          63.6952   85.7648   13.5879 C.ar    1  UNL1        0.0595
      6 C          62.9693   84.9947   12.5249 C.ar    1  UNL1        0.0164
      7 C          62.8986   83.4982   12.5990 C.ar    1  UNL1        0.0308
      8 C          62.4240   85.9772   11.5312 C.ar    1  UNL1        0.0068
      9 C          62.8129   87.3546   11.9802 C.ar    1  UNL1        0.0358
     10 N          63.5985   87.2233   13.2512 N.ar    1  UNL1       -0.3307
     11 C          62.4013   88.5504   11.1736 C.3     1  UNL1        0.0606
     12 C          61.6010   88.3689    9.9181 C.3     1  UNL1        0.0751
     13 N          61.2121   86.9915    9.4692 N.3     1  UNL1       -0.2934
     14 C          61.6236   85.7956   10.2757 C.3     1  UNL1        0.0968
     15 H          61.6021   86.8651    8.5352 H       1  UNL1        0.1236
     16 C          64.1846   88.3523   14.0460 C.3     1  UNL1        0.1096
     17 C          63.7353   88.5882   15.4577 C.3     1  UNL1        0.0718
     18 C          63.3621   89.9705   15.9049 C.3     1  UNL1        0.2074
     19 O          63.7403   91.1570   15.0687 O.3     1  UNL1       -0.4754
     20 C          65.1538   91.6589   15.0751 C.ar    1  UNL1        0.1386
     21 C          66.0299   91.4483   13.8758 C.ar    1  UNL1        0.0378
     22 C          67.4435   91.9503   13.8821 C.ar    1  UNL1        0.0145
     23 C          67.9809   92.6627   15.0877 C.ar    1  UNL1        0.0579
     24 CL         69.3944   93.1647   15.0941 Cl      1  UNL1       -0.0822
     25 C          67.1049   92.8733   16.2870 C.ar    1  UNL1        0.0145
     26 C          65.6913   92.3714   16.2807 C.ar    1  UNL1        0.0378
@<TRIPOS>BOND
     1     1     2    1
     2     2     3   ar
     3     3     4   ar
     4     4     5   ar
     5     5     6   ar
     6     6     7   ar
     7     6     8   ar
     8     8     9   ar
     9     9    10   ar
    10    10    16    1
    11    16    17    1
    12    17    18    1
    13    18    19    1
    14    19    20    1
    15    20    21   ar
    16    21    22   ar
    17    22    23   ar
    18    23    24    1
    19    23    25   ar
    20    25    26   ar
    21     9    11    1
    22    11    12    1
    23    12    13    1
    24    13    14    1
    25     7     2   ar
    26    14     8    1
    27    10     5   ar
    28    26    20   ar
    29    13    15    1
