@<TRIPOS>MOLECULE
*****
 33 37 0 0 0
SMALL
GASTEIGER

@<TRIPOS>ATOM
      1 O          64.3734   88.5248   13.5707 O.2     1  UNL1       -0.2522
      2 C          64.1761   88.9169   15.0050 C.2     1  UNL1        0.3082
      3 N          63.7042   87.9007   16.0022 N.am    1  UNL1       -0.2681
      4 N          64.4507   90.3253   15.4420 N.am    1  UNL1       -0.2681
      5 H          63.5746   88.1581   16.9436 H       1  UNL1        0.1564
      6 H          64.3212   90.5827   16.3834 H       1  UNL1        0.1564
      7 C          63.4296   86.4922   15.5651 C.ar    1  UNL1        0.0516
      8 C          62.5893   85.5917   16.4213 C.ar    1  UNL1        0.0147
      9 C          62.3147   84.1833   15.9843 C.ar    1  UNL1        0.0013
     10 C          62.8803   83.6754   14.6912 C.ar    1  UNL1        0.0016
     11 C          63.7206   84.5760   13.8350 C.ar    1  UNL1        0.0013
     12 C          63.9952   85.9845   14.2720 C.ar    1  UNL1        0.0147
     13 C          62.6057   82.2671   14.2542 C.ar    1  UNL1        0.0192
     14 C          61.2249   81.6963   14.3871 C.ar    1  UNL1        0.0031
     15 C          60.9503   80.2878   13.9501 C.ar    1  UNL1        0.0207
     16 C          62.0564   79.4503   13.3801 C.ar    1  UNL1        0.0989
     17 N          63.4372   80.0210   13.2471 N.ar    1  UNL1       -0.2423
     18 C          63.7118   81.4294   13.6842 C.ar    1  UNL1        0.0988
     19 C          64.9226   91.3415   14.4449 C.ar    1  UNL1        0.0516
     20 C          65.9788   92.3350   14.8289 C.ar    1  UNL1        0.0147
     21 C          66.4507   93.3512   13.8317 C.ar    1  UNL1        0.0010
     22 C          65.8664   93.3741   12.4503 C.ar    1  UNL1       -0.0014
     23 C          64.8102   92.3807   12.0662 C.ar    1  UNL1        0.0010
     24 C          64.3383   91.3644   13.0635 C.ar    1  UNL1        0.0147
     25 C          66.3383   94.3904   11.4531 C.2     1  UNL1        0.0158
     26 C          65.9997   95.8394   11.6414 C.2     1  UNL1        0.0487
     27 C          66.4716   96.8557   10.6443 C.2     1  UNL1        0.2355
     28 N          67.2822   96.4229    9.4586 N.2     1  UNL1       -0.0325
     29 C          67.6209   94.9738    9.2703 C.2     1  UNL1        0.3799
     30 N          68.3978   94.2546    8.2077 N.2     1  UNL1       -0.0106
     31 C          68.4060   92.7938    8.5482 C.2     1  UNL1        0.3351
     32 N          67.6341   92.6102    9.8212 N.2     1  UNL1       -0.2103
     33 C          67.1489   93.9576   10.2675 C.3     1  UNL1        0.2404
@<TRIPOS>BOND
     1     1     2    2
     2     2     3   am
     3     3     7    1
     4     7     8   ar
     5     8     9   ar
     6     9    10   ar
     7    10    13    1
     8    13    14   ar
     9    14    15   ar
    10    15    16   ar
    11    16    17   ar
    12    17    18   ar
    13    10    11   ar
    14    11    12   ar
    15     2     4   am
    16     4    19    1
    17    19    20   ar
    18    20    21   ar
    19    21    22   ar
    20    22    25    1
    21    25    26    2
    22    26    27    1
    23    27    28    2
    24    28    29    1
    25    29    30    2
    26    30    31    1
    27    31    32    2
    28    32    33    1
    29    22    23   ar
    30    23    24   ar
    31    12     7   ar
    32    24    19   ar
    33    18    13   ar
    34    33    25    1
    35    33    29    1
    36     3     5    1
    37     4     6    1
@<TRIPOS>MOLECULE
*****
 33 37 0 0 0
SMALL
GASTEIGER

@<TRIPOS>ATOM
      1 O          64.3983   88.5057   13.0953 O.2     1  UNL1       -0.2522
      2 C          64.2387   88.8738   14.5407 C.2     1  UNL1        0.3082
      3 N          64.5495   90.2679   14.9983 N.am    1  UNL1       -0.2681
      4 N          63.7682   87.8475   15.5284 N.am    1  UNL1       -0.2681
      5 H          64.4447   90.5095   15.9470 H       1  UNL1        0.1564
      6 H          63.6634   88.0890   16.4770 H       1  UNL1        0.1564
      7 C          65.0200   91.2942   14.0106 C.ar    1  UNL1        0.0516
      8 C          66.1365   92.2278   14.3736 C.ar    1  UNL1        0.0147
      9 C          66.6070   93.2541   13.3860 C.ar    1  UNL1        0.0013
     10 C          65.9610   93.3467   12.0354 C.ar    1  UNL1        0.0016
     11 C          64.8444   92.4131   11.6724 C.ar    1  UNL1        0.0013
     12 C          64.3739   91.3868   12.6601 C.ar    1  UNL1        0.0147
     13 C          66.4314   94.3729   11.0477 C.ar    1  UNL1        0.0192
     14 C          67.1631   93.9432    9.8107 C.ar    1  UNL1        0.0031
     15 C          67.6336   94.9695    8.8230 C.ar    1  UNL1        0.0207
     16 C          67.3724   96.4253    9.0723 C.ar    1  UNL1        0.0989
     17 N          66.6408   96.8550   10.3093 N.ar    1  UNL1       -0.2423
     18 C          66.1703   95.8289   11.2970 C.ar    1  UNL1        0.0988
     19 C          63.4574   86.4533   15.0708 C.ar    1  UNL1        0.0516
     20 C          63.4918   86.1185   13.6089 C.ar    1  UNL1        0.0147
     21 C          63.1810   84.7243   13.1513 C.ar    1  UNL1        0.0010
     22 C          62.8356   83.6648   14.1555 C.ar    1  UNL1       -0.0014
     23 C          62.8012   83.9995   15.6172 C.ar    1  UNL1        0.0010
     24 C          63.1120   85.3938   16.0748 C.ar    1  UNL1        0.0147
     25 C          62.5248   82.2705   13.6978 C.2     1  UNL1        0.0158
     26 C          61.7842   81.3316   14.6032 C.2     1  UNL1        0.0487
     27 C          61.4733   79.9374   14.1455 C.2     1  UNL1        0.2355
     28 N          61.9031   79.4820   12.7824 N.2     1  UNL1       -0.0325
     29 C          62.6438   80.4210   11.8770 C.2     1  UNL1        0.3799
     30 N          63.1904   80.2557   10.4900 N.2     1  UNL1       -0.0106
     31 C          63.8390   81.5478   10.0904 C.2     1  UNL1        0.3351
     32 N          63.6933   82.5117   11.2305 N.2     1  UNL1       -0.2103
     33 C          62.9546   81.8153   12.3347 C.3     1  UNL1        0.2404
@<TRIPOS>BOND
     1     1     2    2
     2     2     3   am
     3     3     7    1
     4     7     8   ar
     5     8     9   ar
     6     9    10   ar
     7    10    13    1
     8    13    14   ar
     9    14    15   ar
    10    15    16   ar
    11    16    17   ar
    12    17    18   ar
    13    10    11   ar
    14    11    12   ar
    15     2     4   am
    16     4    19    1
    17    19    20   ar
    18    20    21   ar
    19    21    22   ar
    20    22    25    1
    21    25    26    2
    22    26    27    1
    23    27    28    2
    24    28    29    1
    25    29    30    2
    26    30    31    1
    27    31    32    2
    28    32    33    1
    29    22    23   ar
    30    23    24   ar
    31    12     7   ar
    32    24    19   ar
    33    18    13   ar
    34    33    25    1
    35    33    29    1
    36     3     5    1
    37     4     6    1
@<TRIPOS>MOLECULE
*****
 33 37 0 0 0
SMALL
GASTEIGER

@<TRIPOS>ATOM
      1 O          61.2833   90.4538    4.9739 O.2     1  UNL1       -0.2522
      2 C          59.8699   90.9033    5.1974 C.2     1  UNL1        0.3082
      3 N          59.0825   90.3565    6.3510 N.am    1  UNL1       -0.2681
      4 N          59.2438   91.8998    4.2672 N.am    1  UNL1       -0.2681
      5 H          58.1548   90.6515    6.4977 H       1  UNL1        0.1564
      6 H          58.3161   92.1949    4.4139 H       1  UNL1        0.1564
      7 C          59.7086   89.3600    7.2812 C.ar    1  UNL1        0.0516
      8 C          60.4812   89.8326    8.4769 C.ar    1  UNL1        0.0147
      9 C          61.1072   88.8362    9.4071 C.ar    1  UNL1        0.0013
     10 C          60.9607   87.3672    9.1415 C.ar    1  UNL1        0.0016
     11 C          60.1881   86.8946    7.9458 C.ar    1  UNL1        0.0013
     12 C          59.5621   87.8910    7.0156 C.ar    1  UNL1        0.0147
     13 C          61.5868   86.3708   10.0716 C.ar    1  UNL1        0.0192
     14 C          62.4865   85.3003    9.5287 C.ar    1  UNL1        0.0031
     15 C          63.1126   84.3038   10.4589 C.ar    1  UNL1        0.0207
     16 C          62.8389   84.3779   11.9318 C.ar    1  UNL1        0.0989
     17 N          61.9393   85.4483   12.4747 N.ar    1  UNL1       -0.2423
     18 C          61.3132   86.4448   11.5446 C.ar    1  UNL1        0.0988
     19 C          60.0311   92.4467    3.1136 C.ar    1  UNL1        0.0516
     20 C          61.5287   92.3598    3.1193 C.ar    1  UNL1        0.0147
     21 C          62.3160   92.9067    1.9657 C.ar    1  UNL1        0.0010
     22 C          61.6059   93.5405    0.8063 C.ar    1  UNL1       -0.0014
     23 C          60.1084   93.6273    0.8005 C.ar    1  UNL1        0.0010
     24 C          59.3211   93.0804    1.9543 C.ar    1  UNL1        0.0147
     25 C          62.3933   94.0873   -0.3474 C.2     1  UNL1        0.0158
     26 C          62.0921   93.6314   -1.7443 C.2     1  UNL1        0.0487
     27 C          62.8794   94.1783   -2.8979 C.2     1  UNL1        0.2355
     28 N          63.9682   95.1811   -2.6547 N.2     1  UNL1       -0.0325
     29 C          64.2694   95.6370   -1.2578 C.2     1  UNL1        0.3799
     30 N          65.2759   96.6070   -0.7137 N.2     1  UNL1       -0.0106
     31 C          65.1106   96.6596    0.7762 C.2     1  UNL1        0.3351
     32 N          64.0019   95.7222    1.1530 N.2     1  UNL1       -0.2103
     33 C          63.4820   95.0902   -0.1041 C.3     1  UNL1        0.2404
@<TRIPOS>BOND
     1     1     2    2
     2     2     3   am
     3     3     7    1
     4     7     8   ar
     5     8     9   ar
     6     9    10   ar
     7    10    13    1
     8    13    14   ar
     9    14    15   ar
    10    15    16   ar
    11    16    17   ar
    12    17    18   ar
    13    10    11   ar
    14    11    12   ar
    15     2     4   am
    16     4    19    1
    17    19    20   ar
    18    20    21   ar
    19    21    22   ar
    20    22    25    1
    21    25    26    2
    22    26    27    1
    23    27    28    2
    24    28    29    1
    25    29    30    2
    26    30    31    1
    27    31    32    2
    28    32    33    1
    29    22    23   ar
    30    23    24   ar
    31    12     7   ar
    32    24    19   ar
    33    18    13   ar
    34    33    25    1
    35    33    29    1
    36     3     5    1
    37     4     6    1
@<TRIPOS>MOLECULE
*****
 33 37 0 0 0
SMALL
GASTEIGER

@<TRIPOS>ATOM
      1 O          61.2869   92.0030    1.7784 O.2     1  UNL1       -0.2522
      2 C          60.3580   93.1684    1.9487 C.2     1  UNL1        0.3082
      3 N          60.3214   94.2554    0.9158 N.am    1  UNL1       -0.2681
      4 N          59.4657   93.2466    3.1519 N.am    1  UNL1       -0.2681
      5 H          59.7118   95.0203    1.0276 H       1  UNL1        0.1564
      6 H          58.8560   94.0115    3.2637 H       1  UNL1        0.1564
      7 C          61.2138   94.1771   -0.2874 C.ar    1  UNL1        0.0516
      8 C          60.6683   93.6838   -1.5947 C.ar    1  UNL1        0.0147
      9 C          61.5606   93.6055   -2.7980 C.ar    1  UNL1        0.0013
     10 C          62.9982   94.0205   -2.6939 C.ar    1  UNL1        0.0016
     11 C          63.5437   94.5139   -1.3865 C.ar    1  UNL1        0.0013
     12 C          62.6514   94.5922   -0.1833 C.ar    1  UNL1        0.0147
     13 C          63.8905   93.9423   -3.8970 C.ar    1  UNL1        0.0192
     14 C          64.2168   92.6095   -4.5033 C.ar    1  UNL1        0.0031
     15 C          65.1092   92.5313   -5.7065 C.ar    1  UNL1        0.0207
     16 C          65.6750   93.7856   -6.3034 C.ar    1  UNL1        0.0989
     17 N          65.3487   95.1183   -5.6972 N.ar    1  UNL1       -0.2423
     18 C          64.4564   95.1966   -4.4940 C.ar    1  UNL1        0.0988
     19 C          59.5023   92.1596    4.1848 C.ar    1  UNL1        0.0516
     20 C          58.2275   91.6762    4.8104 C.ar    1  UNL1        0.0147
     21 C          58.2641   90.5892    5.8432 C.ar    1  UNL1        0.0010
     22 C          59.5755   89.9854    6.2506 C.ar    1  UNL1       -0.0014
     23 C          60.8502   90.4687    5.6250 C.ar    1  UNL1        0.0010
     24 C          60.8136   91.5559    4.5921 C.ar    1  UNL1        0.0147
     25 C          59.6120   88.8983    7.2835 C.2     1  UNL1        0.0158
     26 C          59.3464   87.4766    6.8858 C.2     1  UNL1        0.0487
     27 C          59.3830   86.3895    7.9186 C.2     1  UNL1        0.2355
     28 N          59.6851   86.7241    9.3493 N.2     1  UNL1       -0.0325
     29 C          59.9507   88.1458    9.7470 C.2     1  UNL1        0.3799
     30 N          60.2738   88.7742   11.0702 N.2     1  UNL1       -0.0106
     31 C          60.4369   90.2497   10.8550 C.2     1  UNL1        0.3351
     32 N          60.2146   90.5332    9.3989 N.2     1  UNL1       -0.2103
     33 C          59.9142   89.2329    8.7141 C.3     1  UNL1        0.2404
@<TRIPOS>BOND
     1     1     2    2
     2     2     3   am
     3     3     7    1
     4     7     8   ar
     5     8     9   ar
     6     9    10   ar
     7    10    13    1
     8    13    14   ar
     9    14    15   ar
    10    15    16   ar
    11    16    17   ar
    12    17    18   ar
    13    10    11   ar
    14    11    12   ar
    15     2     4   am
    16     4    19    1
    17    19    20   ar
    18    20    21   ar
    19    21    22   ar
    20    22    25    1
    21    25    26    2
    22    26    27    1
    23    27    28    2
    24    28    29    1
    25    29    30    2
    26    30    31    1
    27    31    32    2
    28    32    33    1
    29    22    23   ar
    30    23    24   ar
    31    12     7   ar
    32    24    19   ar
    33    18    13   ar
    34    33    25    1
    35    33    29    1
    36     3     5    1
    37     4     6    1
@<TRIPOS>MOLECULE
*****
 33 37 0 0 0
SMALL
GASTEIGER

@<TRIPOS>ATOM
      1 O          61.3547   90.6047    5.1293 O.2     1  UNL1       -0.2522
      2 C          59.8899   90.9116    5.2308 C.2     1  UNL1        0.3082
      3 N          59.0544   90.2422    6.2812 N.am    1  UNL1       -0.2681
      4 N          59.2608   91.8881    4.2816 N.am    1  UNL1       -0.2681
      5 H          58.0931   90.4436    6.3478 H       1  UNL1        0.1564
      6 H          58.2994   92.0895    4.3482 H       1  UNL1        0.1564
      7 C          59.6836   89.2657    7.2304 C.ar    1  UNL1        0.0516
      8 C          59.5643   87.7919    6.9784 C.ar    1  UNL1        0.0147
      9 C          60.1934   86.8154    7.9274 C.ar    1  UNL1        0.0013
     10 C          60.9419   87.3128    9.1285 C.ar    1  UNL1        0.0016
     11 C          61.0612   88.7868    9.3805 C.ar    1  UNL1        0.0013
     12 C          60.4320   89.7632    8.4313 C.ar    1  UNL1        0.0147
     13 C          61.5710   86.3364   10.0775 C.ar    1  UNL1        0.0192
     14 C          62.4705   85.2558    9.5548 C.ar    1  UNL1        0.0031
     15 C          63.0997   84.2794   10.5039 C.ar    1  UNL1        0.0207
     16 C          62.8293   84.3836   11.9756 C.ar    1  UNL1        0.0989
     17 N          61.9299   85.4641   12.4983 N.ar    1  UNL1       -0.2423
     18 C          61.3007   86.4406   11.5493 C.ar    1  UNL1        0.0988
     19 C          60.0963   92.5575    3.2311 C.ar    1  UNL1        0.0516
     20 C          61.5657   92.2685    3.1446 C.ar    1  UNL1        0.0147
     21 C          62.4012   92.9379    2.0942 C.ar    1  UNL1        0.0010
     22 C          61.7674   93.8965    1.1300 C.ar    1  UNL1       -0.0014
     23 C          60.2981   94.1857    1.2165 C.ar    1  UNL1        0.0010
     24 C          59.4625   93.5161    2.2671 C.ar    1  UNL1        0.0147
     25 C          62.6030   94.5660    0.0795 C.2     1  UNL1        0.0158
     26 C          63.7800   95.4054    0.4797 C.2     1  UNL1        0.0487
     27 C          64.6155   96.0748   -0.5707 C.2     1  UNL1        0.2355
     28 N          64.2742   95.9050   -2.0215 N.2     1  UNL1       -0.0325
     29 C          63.0972   95.0657   -2.4217 C.2     1  UNL1        0.3799
     30 N          62.5216   94.7184   -3.7627 N.2     1  UNL1       -0.0106
     31 C          61.3304   93.8343   -3.5409 C.2     1  UNL1        0.3351
     32 N          61.1696   93.6352   -2.0629 N.2     1  UNL1       -0.2103
     33 C          62.2616   94.3962   -1.3712 C.3     1  UNL1        0.2404
@<TRIPOS>BOND
     1     1     2    2
     2     2     3   am
     3     3     7    1
     4     7     8   ar
     5     8     9   ar
     6     9    10   ar
     7    10    13    1
     8    13    14   ar
     9    14    15   ar
    10    15    16   ar
    11    16    17   ar
    12    17    18   ar
    13    10    11   ar
    14    11    12   ar
    15     2     4   am
    16     4    19    1
    17    19    20   ar
    18    20    21   ar
    19    21    22   ar
    20    22    25    1
    21    25    26    2
    22    26    27    1
    23    27    28    2
    24    28    29    1
    25    29    30    2
    26    30    31    1
    27    31    32    2
    28    32    33    1
    29    22    23   ar
    30    23    24   ar
    31    12     7   ar
    32    24    19   ar
    33    18    13   ar
    34    33    25    1
    35    33    29    1
    36     3     5    1
    37     4     6    1
@<TRIPOS>MOLECULE
*****
 33 37 0 0 0
SMALL
GASTEIGER

@<TRIPOS>ATOM
      1 O          61.2386   90.8188    5.1644 O.2     1  UNL1       -0.2522
      2 C          59.7408   90.8856    5.1190 C.2     1  UNL1        0.3082
      3 N          59.0573   91.6640    4.0342 N.am    1  UNL1       -0.2681
      4 N          58.9265   90.1739    6.1585 N.am    1  UNL1       -0.2681
      5 H          58.0742   91.7078    4.0044 H       1  UNL1        0.1564
      6 H          57.9434   90.2177    6.1287 H       1  UNL1        0.1564
      7 C          59.8716   92.3757    2.9947 C.ar    1  UNL1        0.0516
      8 C          59.1905   93.0530    1.8427 C.ar    1  UNL1        0.0147
      9 C          60.0047   93.7647    0.8032 C.ar    1  UNL1        0.0013
     10 C          61.5001   93.7990    0.9158 C.ar    1  UNL1        0.0016
     11 C          62.1813   93.1217    2.0679 C.ar    1  UNL1        0.0013
     12 C          61.3669   92.4100    3.1074 C.ar    1  UNL1        0.0147
     13 C          62.3143   94.5107   -0.1236 C.ar    1  UNL1        0.0192
     14 C          63.8116   94.4244   -0.0920 C.ar    1  UNL1        0.0031
     15 C          64.6259   95.1361   -1.1315 C.ar    1  UNL1        0.0207
     16 C          63.9430   95.9339   -2.2025 C.ar    1  UNL1        0.0989
     17 N          62.4458   96.0202   -2.2341 N.ar    1  UNL1       -0.2423
     18 C          61.6315   95.3086   -1.1947 C.ar    1  UNL1        0.0988
     19 C          59.6099   89.3955    7.2432 C.ar    1  UNL1        0.0516
     20 C          59.6112   87.8959    7.2036 C.ar    1  UNL1        0.0147
     21 C          60.2946   87.1175    8.2883 C.ar    1  UNL1        0.0010
     22 C          60.9769   87.8386    9.4129 C.ar    1  UNL1       -0.0014
     23 C          60.9757   89.3380    9.4527 C.ar    1  UNL1        0.0010
     24 C          60.2922   90.1165    8.3678 C.ar    1  UNL1        0.0147
     25 C          61.6604   87.0601   10.4978 C.2     1  UNL1        0.0158
     26 C          61.5529   85.5643   10.5292 C.2     1  UNL1        0.0487
     27 C          62.2363   84.7859   11.6139 C.2     1  UNL1        0.2355
     28 N          63.0274   85.5032   12.6674 N.2     1  UNL1       -0.0325
     29 C          63.1350   86.9990   12.6360 C.2     1  UNL1        0.3799
     30 N          63.8396   87.9736   13.5324 N.2     1  UNL1       -0.0106
     31 C          63.5916   89.3544   13.0016 C.2     1  UNL1        0.3351
     32 N          62.7337   89.2332   11.7772 N.2     1  UNL1       -0.2103
     33 C          62.4515   87.7774   11.5512 C.3     1  UNL1        0.2404
@<TRIPOS>BOND
     1     1     2    2
     2     2     3   am
     3     3     7    1
     4     7     8   ar
     5     8     9   ar
     6     9    10   ar
     7    10    13    1
     8    13    14   ar
     9    14    15   ar
    10    15    16   ar
    11    16    17   ar
    12    17    18   ar
    13    10    11   ar
    14    11    12   ar
    15     2     4   am
    16     4    19    1
    17    19    20   ar
    18    20    21   ar
    19    21    22   ar
    20    22    25    1
    21    25    26    2
    22    26    27    1
    23    27    28    2
    24    28    29    1
    25    29    30    2
    26    30    31    1
    27    31    32    2
    28    32    33    1
    29    22    23   ar
    30    23    24   ar
    31    12     7   ar
    32    24    19   ar
    33    18    13   ar
    34    33    25    1
    35    33    29    1
    36     3     5    1
    37     4     6    1
@<TRIPOS>MOLECULE
*****
 33 37 0 0 0
SMALL
GASTEIGER

@<TRIPOS>ATOM
      1 O          61.0574   89.2504    7.2031 O.2     1  UNL1       -0.2522
      2 C          59.5762   89.0227    7.2698 C.2     1  UNL1        0.3082
      3 N          58.6630   89.7455    6.3246 N.am    1  UNL1       -0.2681
      4 N          59.0084   88.0723    8.2819 N.am    1  UNL1       -0.2681
      5 H          57.6909   89.5960    6.3685 H       1  UNL1        0.1564
      6 H          58.0363   87.9228    8.3258 H       1  UNL1        0.1564
      7 C          59.2308   90.6959    5.3125 C.ar    1  UNL1        0.0516
      8 C          60.6983   90.6730    5.0028 C.ar    1  UNL1        0.0147
      9 C          61.2662   91.6234    3.9907 C.ar    1  UNL1        0.0013
     10 C          60.3665   92.5968    3.2884 C.ar    1  UNL1        0.0016
     11 C          58.8990   92.6197    3.5981 C.ar    1  UNL1        0.0013
     12 C          58.3311   91.6692    4.6102 C.ar    1  UNL1        0.0147
     13 C          60.9343   93.5471    2.2764 C.ar    1  UNL1        0.0192
     14 C          62.3032   93.3104    1.7105 C.ar    1  UNL1        0.0031
     15 C          62.8710   94.2609    0.6983 C.ar    1  UNL1        0.0207
     16 C          62.0700   95.4479    0.2522 C.ar    1  UNL1        0.0989
     17 N          60.7011   95.6847    0.8181 N.ar    1  UNL1       -0.2423
     18 C          60.1333   94.7343    1.8302 C.ar    1  UNL1        0.0988
     19 C          59.9217   87.3495    9.2271 C.ar    1  UNL1        0.0516
     20 C          60.6779   86.1403    8.7622 C.ar    1  UNL1        0.0147
     21 C          61.5911   85.4176    9.7074 C.ar    1  UNL1        0.0010
     22 C          61.7482   85.9040   11.1177 C.ar    1  UNL1       -0.0014
     23 C          60.9921   87.1131   11.5827 C.ar    1  UNL1        0.0010
     24 C          60.0788   87.8359   10.6374 C.ar    1  UNL1        0.0147
     25 C          62.6615   85.1812   12.0630 C.2     1  UNL1        0.0158
     26 C          62.7990   83.6899   11.9799 C.2     1  UNL1        0.0487
     27 C          63.7123   82.9671   12.9251 C.2     1  UNL1        0.2355
     28 N          64.4881   83.7356   13.9535 N.2     1  UNL1       -0.0325
     29 C          64.3506   85.2270   14.0365 C.2     1  UNL1        0.3799
     30 N          64.9833   86.2445   14.9389 N.2     1  UNL1       -0.0106
     31 C          64.4610   87.5962   14.5514 C.2     1  UNL1        0.3351
     32 N          63.5055   87.4141   13.4095 N.2     1  UNL1       -0.2103
     33 C          63.4373   85.9498   13.0913 C.3     1  UNL1        0.2404
@<TRIPOS>BOND
     1     1     2    2
     2     2     3   am
     3     3     7    1
     4     7     8   ar
     5     8     9   ar
     6     9    10   ar
     7    10    13    1
     8    13    14   ar
     9    14    15   ar
    10    15    16   ar
    11    16    17   ar
    12    17    18   ar
    13    10    11   ar
    14    11    12   ar
    15     2     4   am
    16     4    19    1
    17    19    20   ar
    18    20    21   ar
    19    21    22   ar
    20    22    25    1
    21    25    26    2
    22    26    27    1
    23    27    28    2
    24    28    29    1
    25    29    30    2
    26    30    31    1
    27    31    32    2
    28    32    33    1
    29    22    23   ar
    30    23    24   ar
    31    12     7   ar
    32    24    19   ar
    33    18    13   ar
    34    33    25    1
    35    33    29    1
    36     3     5    1
    37     4     6    1
@<TRIPOS>MOLECULE
*****
 33 37 0 0 0
SMALL
GASTEIGER

@<TRIPOS>ATOM
      1 O          61.0211   89.2154    7.5243 O.2     1  UNL1       -0.2522
      2 C          59.5755   88.8150    7.5241 C.2     1  UNL1        0.3082
      3 N          58.6271   89.4299    6.5380 N.am    1  UNL1       -0.2681
      4 N          59.0784   87.7996    8.5100 N.am    1  UNL1       -0.2681
      5 H          57.6783   89.1670    6.5379 H       1  UNL1        0.1564
      6 H          58.1296   87.5368    8.5099 H       1  UNL1        0.1564
      7 C          59.1242   90.4453    5.5521 C.ar    1  UNL1        0.0516
      8 C          58.1599   91.3890    4.8968 C.ar    1  UNL1        0.0147
      9 C          58.6569   92.4043    3.9109 C.ar    1  UNL1        0.0013
     10 C          60.1182   92.4760    3.5803 C.ar    1  UNL1        0.0016
     11 C          61.0826   91.5322    4.2356 C.ar    1  UNL1        0.0013
     12 C          60.5855   90.5168    5.2216 C.ar    1  UNL1        0.0147
     13 C          60.6153   93.4913    2.5945 C.ar    1  UNL1        0.0192
     14 C          61.6200   93.0961    1.5530 C.ar    1  UNL1        0.0031
     15 C          62.1171   94.1115    0.5670 C.ar    1  UNL1        0.0207
     16 C          61.6096   95.5218    0.6226 C.ar    1  UNL1        0.0989
     17 N          60.6050   95.9170    1.6641 N.ar    1  UNL1       -0.2423
     18 C          60.1078   94.9017    2.6500 C.ar    1  UNL1        0.0988
     19 C          60.0268   87.1847    9.4960 C.ar    1  UNL1        0.0516
     20 C          60.1164   87.7298   10.8907 C.ar    1  UNL1        0.0147
     21 C          61.0648   87.1149   11.8767 C.ar    1  UNL1        0.0010
     22 C          61.9237   85.9549   11.4682 C.ar    1  UNL1       -0.0014
     23 C          61.8341   85.4098   10.0736 C.ar    1  UNL1        0.0010
     24 C          60.8856   86.0248    9.0876 C.ar    1  UNL1        0.0147
     25 C          62.8721   85.3400   12.4543 C.2     1  UNL1        0.0158
     26 C          63.6194   86.2114   13.4198 C.2     1  UNL1        0.0487
     27 C          64.5678   85.5966   14.4058 C.2     1  UNL1        0.2355
     28 N          64.7690   84.1102   14.4265 N.2     1  UNL1       -0.0325
     29 C          64.0217   83.2388   13.4610 C.2     1  UNL1        0.3799
     30 N          64.0150   81.7542   13.2469 N.2     1  UNL1       -0.0106
     31 C          63.0624   81.4515   12.1285 C.2     1  UNL1        0.3351
     32 N          62.4804   82.7491   11.6513 N.2     1  UNL1       -0.2103
     33 C          63.0733   83.8537   12.4749 C.3     1  UNL1        0.2404
@<TRIPOS>BOND
     1     1     2    2
     2     2     3   am
     3     3     7    1
     4     7     8   ar
     5     8     9   ar
     6     9    10   ar
     7    10    13    1
     8    13    14   ar
     9    14    15   ar
    10    15    16   ar
    11    16    17   ar
    12    17    18   ar
    13    10    11   ar
    14    11    12   ar
    15     2     4   am
    16     4    19    1
    17    19    20   ar
    18    20    21   ar
    19    21    22   ar
    20    22    25    1
    21    25    26    2
    22    26    27    1
    23    27    28    2
    24    28    29    1
    25    29    30    2
    26    30    31    1
    27    31    32    2
    28    32    33    1
    29    22    23   ar
    30    23    24   ar
    31    12     7   ar
    32    24    19   ar
    33    18    13   ar
    34    33    25    1
    35    33    29    1
    36     3     5    1
    37     4     6    1
@<TRIPOS>MOLECULE
*****
 33 37 0 0 0
SMALL
GASTEIGER

@<TRIPOS>ATOM
      1 O          72.2914   77.2958   11.9815 O.2     1  UNL1       -0.2522
      2 C          72.3547   78.4259   12.9658 C.2     1  UNL1        0.3082
      3 N          72.5439   79.8328   12.4813 N.am    1  UNL1       -0.2681
      4 N          72.2288   78.1491   14.4347 N.am    1  UNL1       -0.2681
      5 H          72.5854   80.5745   13.1273 H       1  UNL1        0.1564
      6 H          72.2703   78.8908   15.0807 H       1  UNL1        0.1564
      7 C          72.6698   80.1096   11.0124 C.ar    1  UNL1        0.0516
      8 C          73.2617   79.0747   10.1022 C.ar    1  UNL1        0.0147
      9 C          73.3877   79.3515    8.6334 C.ar    1  UNL1        0.0013
     10 C          72.9217   80.6632    8.0747 C.ar    1  UNL1        0.0016
     11 C          72.3297   81.6983    8.9849 C.ar    1  UNL1        0.0013
     12 C          72.2038   81.4214   10.4538 C.ar    1  UNL1        0.0147
     13 C          73.0476   80.9401    6.6059 C.ar    1  UNL1        0.0192
     14 C          73.5045   79.8563    5.6749 C.ar    1  UNL1        0.0031
     15 C          73.6304   80.1331    4.2060 C.ar    1  UNL1        0.0207
     16 C          73.2994   81.4937    3.6682 C.ar    1  UNL1        0.0989
     17 N          72.8425   82.5774    4.5992 N.ar    1  UNL1       -0.2423
     18 C          72.7166   82.3006    6.0680 C.ar    1  UNL1        0.0988
     19 C          72.0396   76.7422   14.9192 C.ar    1  UNL1        0.0516
     20 C          73.2202   75.9464   15.3914 C.ar    1  UNL1        0.0147
     21 C          73.0310   74.5395   15.8759 C.ar    1  UNL1        0.0010
     22 C          71.6611   73.9284   15.8883 C.ar    1  UNL1       -0.0014
     23 C          70.4805   74.7242   15.4162 C.ar    1  UNL1        0.0010
     24 C          70.6698   76.1311   14.9317 C.ar    1  UNL1        0.0147
     25 C          71.4719   72.5215   16.3729 C.2     1  UNL1        0.0158
     26 C          71.2082   72.2577   17.8257 C.2     1  UNL1        0.0487
     27 C          71.0190   70.8509   18.3103 C.2     1  UNL1        0.2355
     28 N          71.0935   69.7076   17.3420 N.2     1  UNL1       -0.0325
     29 C          71.3573   69.9714   15.8891 C.2     1  UNL1        0.3799
     30 N          71.4846   69.0537   14.7094 N.2     1  UNL1       -0.0106
     31 C          71.7525   69.8935   13.4958 C.2     1  UNL1        0.3351
     32 N          71.7907   71.3302   13.9254 N.2     1  UNL1       -0.2103
     33 C          71.5465   71.3783   15.4046 C.3     1  UNL1        0.2404
@<TRIPOS>BOND
     1     1     2    2
     2     2     3   am
     3     3     7    1
     4     7     8   ar
     5     8     9   ar
     6     9    10   ar
     7    10    13    1
     8    13    14   ar
     9    14    15   ar
    10    15    16   ar
    11    16    17   ar
    12    17    18   ar
    13    10    11   ar
    14    11    12   ar
    15     2     4   am
    16     4    19    1
    17    19    20   ar
    18    20    21   ar
    19    21    22   ar
    20    22    25    1
    21    25    26    2
    22    26    27    1
    23    27    28    2
    24    28    29    1
    25    29    30    2
    26    30    31    1
    27    31    32    2
    28    32    33    1
    29    22    23   ar
    30    23    24   ar
    31    12     7   ar
    32    24    19   ar
    33    18    13   ar
    34    33    25    1
    35    33    29    1
    36     3     5    1
    37     4     6    1
