@<TRIPOS>MOLECULE
*****
 26 29 0 0 0
SMALL
GASTEIGER

@<TRIPOS>ATOM
      1 C          58.7362   88.2456    7.2144 C.3     1  UNL1        0.0540
      2 C          59.8391   87.9696    8.1929 C.ar    1  UNL1        0.0822
      3 C          60.6307   88.9997    8.9427 C.ar    1  UNL1        0.0509
      4 C          61.6249   88.2817    9.8066 C.ar    1  UNL1        0.1370
      5 N          61.4476   86.8080    9.5908 N.ar    1  UNL1       -0.2162
      6 N          60.3440   86.6151    8.5934 N.ar    1  UNL1       -0.1683
      7 C          62.2357   85.7184   10.2555 C.ar    1  UNL1        0.0850
      8 C          63.0970   84.8068    9.4326 C.ar    1  UNL1        0.0193
      9 C          63.8851   83.7172   10.0973 C.ar    1  UNL1        0.0024
     10 C          63.8118   83.5393   11.5850 C.ar    1  UNL1        0.0115
     11 C          62.9505   84.4509   12.4078 C.ar    1  UNL1        0.0592
     12 CL         62.8772   84.2730   13.8955 Cl      1  UNL1       -0.0822
     13 C          62.1624   85.5405   11.7431 C.ar    1  UNL1        0.0306
     14 N          62.6213   88.9247   10.7252 N.am    1  UNL1       -0.2656
     15 C          62.1663   89.5296   12.0202 C.2     1  UNL1        0.2551
     16 O          60.7148   89.4915   12.3967 O.2     1  UNL1       -0.2696
     17 H          63.5739   88.9497   10.4781 H       1  UNL1        0.1566
     18 C          63.1628   90.1726   12.9387 C.ar    1  UNL1        0.1102
     19 C          63.2959   89.9198   14.4111 C.ar    1  UNL1        0.1281
     20 N          64.4165   90.7723   14.9283 N.ar    1  UNL1       -0.1619
     21 N          64.9761   91.5519   13.7755 N.ar    1  UNL1       -0.2105
     22 C          66.0910   92.5514   13.6866 C.ar    1  UNL1        0.1037
     23 C          66.4311   93.1802   12.3679 C.ar    1  UNL1        0.0414
     24 C          65.6563   92.8096   11.1382 C.ar    1  UNL1        0.1022
     25 N          64.5413   91.8101   11.2271 N.ar    1  UNL1       -0.2248
     26 C          64.2012   91.1812   12.5457 C.ar    1  UNL1        0.1697
@<TRIPOS>BOND
     1     1     2    1
     2     2     3   ar
     3     3     4   ar
     4     4    14    1
     5    14    15   am
     6    15    16    2
     7    15    18    1
     8    18    19   ar
     9    19    20   ar
    10    20    21   ar
    11    21    22   ar
    12    22    23   ar
    13    23    24   ar
    14    24    25   ar
    15    25    26   ar
    16     4     5   ar
    17     5     7    1
    18     7     8   ar
    19     8     9   ar
    20     9    10   ar
    21    10    11   ar
    22    11    12    1
    23    11    13   ar
    24     5     6   ar
    25     6     2   ar
    26    26    18   ar
    27    13     7   ar
    28    26    21   ar
    29    14    17    1
@<TRIPOS>MOLECULE
*****
 26 29 0 0 0
SMALL
GASTEIGER

@<TRIPOS>ATOM
      1 C          58.9779   88.9463    7.0072 C.3     1  UNL1        0.0540
      2 C          59.9135   88.6182    8.1328 C.ar    1  UNL1        0.0822
      3 C          60.2172   87.2453    8.6552 C.ar    1  UNL1        0.0509
      4 C          61.2012   87.3842    9.7788 C.ar    1  UNL1        0.1370
      5 N          61.5056   88.8428    9.9509 N.ar    1  UNL1       -0.2162
      6 N          60.7098   89.6055    8.9336 N.ar    1  UNL1       -0.1683
      7 C          62.4415   89.4348   10.9627 C.ar    1  UNL1        0.0850
      8 C          62.9523   90.8338   10.7835 C.ar    1  UNL1        0.0193
      9 C          63.8882   91.4258   11.7952 C.ar    1  UNL1        0.0024
     10 C          64.3132   90.6188   12.9862 C.ar    1  UNL1        0.0115
     11 C          63.8024   89.2200   13.1653 C.ar    1  UNL1        0.0592
     12 CL         64.2274   88.4130   14.3563 Cl      1  UNL1       -0.0822
     13 C          62.8665   88.6280   12.1536 C.ar    1  UNL1        0.0306
     14 N          61.7792   86.2614   10.5883 N.am    1  UNL1       -0.2656
     15 C          62.7205   85.2835    9.9496 C.2     1  UNL1        0.2551
     16 O          63.0837   85.4284    8.5016 O.2     1  UNL1       -0.2696
     17 H          61.5408   86.1662   11.5387 H       1  UNL1        0.1566
     18 C          63.2985   84.1607   10.7592 C.ar    1  UNL1        0.1102
     19 C          64.1309   83.0304   10.2309 C.ar    1  UNL1        0.1281
     20 N          64.4924   82.1423   11.3844 N.ar    1  UNL1       -0.1619
     21 N          63.8833   82.7238   12.6257 N.ar    1  UNL1       -0.2105
     22 C          63.9052   82.2785   14.0579 C.ar    1  UNL1        0.1037
     23 C          63.1892   83.0808   15.1038 C.ar    1  UNL1        0.0414
     24 C          62.4513   84.3282   14.7174 C.ar    1  UNL1        0.1022
     25 N          62.4294   84.7735   13.2851 N.ar    1  UNL1       -0.2248
     26 C          63.1453   83.9713   12.2393 C.ar    1  UNL1        0.1697
@<TRIPOS>BOND
     1     1     2    1
     2     2     3   ar
     3     3     4   ar
     4     4    14    1
     5    14    15   am
     6    15    16    2
     7    15    18    1
     8    18    19   ar
     9    19    20   ar
    10    20    21   ar
    11    21    22   ar
    12    22    23   ar
    13    23    24   ar
    14    24    25   ar
    15    25    26   ar
    16     4     5   ar
    17     5     7    1
    18     7     8   ar
    19     8     9   ar
    20     9    10   ar
    21    10    11   ar
    22    11    12    1
    23    11    13   ar
    24     5     6   ar
    25     6     2   ar
    26    26    18   ar
    27    13     7   ar
    28    26    21   ar
    29    14    17    1
@<TRIPOS>MOLECULE
*****
 26 29 0 0 0
SMALL
GASTEIGER

@<TRIPOS>ATOM
      1 C          63.8446   91.6463   12.0768 C.3     1  UNL1        0.0540
      2 C          63.3310   90.2778   11.7405 C.ar    1  UNL1        0.0822
      3 C          63.5105   89.0404   12.5691 C.ar    1  UNL1        0.0509
      4 C          62.8380   87.9042   11.8571 C.ar    1  UNL1        0.1370
      5 N          62.2428   88.4393   10.5885 N.ar    1  UNL1       -0.2162
      6 N          62.5475   89.9063   10.5165 N.ar    1  UNL1       -0.1683
      7 C          61.4774   87.6467    9.5708 C.ar    1  UNL1        0.0850
      8 C          60.0116   87.8969    9.3730 C.ar    1  UNL1        0.0193
      9 C          59.2462   87.1043    8.3552 C.ar    1  UNL1        0.0024
     10 C          59.9465   86.0615    7.5352 C.ar    1  UNL1        0.0115
     11 C          61.4122   85.8114    7.7330 C.ar    1  UNL1        0.0592
     12 CL         62.1125   84.7687    6.9130 Cl      1  UNL1       -0.0822
     13 C          62.1776   86.6040    8.7508 C.ar    1  UNL1        0.0306
     14 N          62.7723   86.4824   12.3307 N.am    1  UNL1       -0.2656
     15 C          63.4746   86.0792   13.5933 C.2     1  UNL1        0.2551
     16 O          64.2426   87.0977   14.3824 O.2     1  UNL1       -0.2696
     17 H          62.2682   85.8139   11.8128 H       1  UNL1        0.1566
     18 C          63.4088   84.6574   14.0668 C.ar    1  UNL1        0.1102
     19 C          63.4938   84.1979   15.4920 C.ar    1  UNL1        0.1281
     20 N          63.3840   82.7020   15.5041 N.ar    1  UNL1       -0.1619
     21 N          63.2311   82.2369   14.0863 N.ar    1  UNL1       -0.2105
     22 C          63.0798   80.8691   13.4894 C.ar    1  UNL1        0.1037
     23 C          62.9440   80.7098   12.0041 C.ar    1  UNL1        0.0414
     24 C          62.9593   81.9183   11.1157 C.ar    1  UNL1        0.1022
     25 N          63.1105   83.2862   11.7126 N.ar    1  UNL1       -0.2248
     26 C          63.2464   83.4455   13.1979 C.ar    1  UNL1        0.1697
@<TRIPOS>BOND
     1     1     2    1
     2     2     3   ar
     3     3     4   ar
     4     4    14    1
     5    14    15   am
     6    15    16    2
     7    15    18    1
     8    18    19   ar
     9    19    20   ar
    10    20    21   ar
    11    21    22   ar
    12    22    23   ar
    13    23    24   ar
    14    24    25   ar
    15    25    26   ar
    16     4     5   ar
    17     5     7    1
    18     7     8   ar
    19     8     9   ar
    20     9    10   ar
    21    10    11   ar
    22    11    12    1
    23    11    13   ar
    24     5     6   ar
    25     6     2   ar
    26    26    18   ar
    27    13     7   ar
    28    26    21   ar
    29    14    17    1
@<TRIPOS>MOLECULE
*****
 26 29 0 0 0
SMALL
GASTEIGER

@<TRIPOS>ATOM
      1 C          63.5072   90.3147   16.8126 C.3     1  UNL1        0.0540
      2 C          63.4919   90.4245   15.3167 C.ar    1  UNL1        0.0822
      3 C          64.4352   91.2399   14.4829 C.ar    1  UNL1        0.0509
      4 C          64.0569   91.0575   13.0428 C.ar    1  UNL1        0.1370
      5 N          62.8798   90.1295   12.9867 N.ar    1  UNL1       -0.2162
      6 N          62.5306   89.7383   14.3921 N.ar    1  UNL1       -0.1683
      7 C          62.1755   89.6728   11.7435 C.ar    1  UNL1        0.0850
      8 C          61.0706   90.5026   11.1598 C.ar    1  UNL1        0.0193
      9 C          60.3664   90.0460    9.9166 C.ar    1  UNL1        0.0024
     10 C          60.7670   88.7596    9.2572 C.ar    1  UNL1        0.0115
     11 C          61.8718   87.9299    9.8410 C.ar    1  UNL1        0.0592
     12 CL         62.2725   86.6434    9.1816 Cl      1  UNL1       -0.0822
     13 C          62.5761   88.3865   11.0842 C.ar    1  UNL1        0.0306
     14 N          64.7365   91.6919   11.8656 N.am    1  UNL1       -0.2656
     15 C          66.1489   92.1814   11.9891 C.2     1  UNL1        0.2551
     16 O          66.8819   92.0367   13.2897 O.2     1  UNL1       -0.2696
     17 H          64.2554   91.7869   11.0119 H       1  UNL1        0.1566
     18 C          66.8284   92.8158   10.8118 C.ar    1  UNL1        0.1102
     19 C          67.8443   92.1623    9.9226 C.ar    1  UNL1        0.1281
     20 N          68.2549   93.1576    8.8783 N.ar    1  UNL1       -0.1619
     21 N          67.4929   94.4264    9.1220 N.ar    1  UNL1       -0.2105
     22 C          67.4878   95.7467    8.4103 C.ar    1  UNL1        0.1037
     23 C          66.6010   96.8559    8.8936 C.ar    1  UNL1        0.0414
     24 C          65.7193   96.6446   10.0886 C.ar    1  UNL1        0.1022
     25 N          65.7244   95.3242   10.8003 N.ar    1  UNL1       -0.2248
     26 C          66.6111   94.2151   10.3171 C.ar    1  UNL1        0.1697
@<TRIPOS>BOND
     1     1     2    1
     2     2     3   ar
     3     3     4   ar
     4     4    14    1
     5    14    15   am
     6    15    16    2
     7    15    18    1
     8    18    19   ar
     9    19    20   ar
    10    20    21   ar
    11    21    22   ar
    12    22    23   ar
    13    23    24   ar
    14    24    25   ar
    15    25    26   ar
    16     4     5   ar
    17     5     7    1
    18     7     8   ar
    19     8     9   ar
    20     9    10   ar
    21    10    11   ar
    22    11    12    1
    23    11    13   ar
    24     5     6   ar
    25     6     2   ar
    26    26    18   ar
    27    13     7   ar
    28    26    21   ar
    29    14    17    1
@<TRIPOS>MOLECULE
*****
 26 29 0 0 0
SMALL
GASTEIGER

@<TRIPOS>ATOM
      1 C          67.3150   92.5258   16.4475 C.3     1  UNL1        0.0540
      2 C          66.8619   92.4666   15.0188 C.ar    1  UNL1        0.0822
      3 C          65.5765   91.8712   14.5254 C.ar    1  UNL1        0.0509
      4 C          65.5348   92.0290   13.0343 C.ar    1  UNL1        0.1370
      5 N          66.7944   92.7220   12.6061 N.ar    1  UNL1       -0.2162
      6 N          67.6145   92.9924   13.8326 N.ar    1  UNL1       -0.1683
      7 C          67.1681   93.0814   11.1986 C.ar    1  UNL1        0.0850
      8 C          68.0310   92.1565   10.3923 C.ar    1  UNL1        0.0193
      9 C          68.4047   92.5160    8.9848 C.ar    1  UNL1        0.0024
     10 C          67.9157   93.8003    8.3836 C.ar    1  UNL1        0.0115
     11 C          67.0529   94.7252    9.1899 C.ar    1  UNL1        0.0592
     12 CL         66.5638   96.0095    8.5888 Cl      1  UNL1       -0.0822
     13 C          66.6791   94.3657   10.5975 C.ar    1  UNL1        0.0306
     14 N          64.4279   91.5738   12.1302 N.am    1  UNL1       -0.2656
     15 C          63.6439   90.3401   12.4668 C.2     1  UNL1        0.2551
     16 O          63.9668   89.5616   13.7076 O.2     1  UNL1       -0.2696
     17 H          64.2159   92.0848   11.3158 H       1  UNL1        0.1566
     18 C          62.5370   89.8850   11.5626 C.ar    1  UNL1        0.1102
     19 C          61.5845   90.7734   10.8188 C.ar    1  UNL1        0.1281
     20 N          60.6471   89.8989   10.0399 N.ar    1  UNL1       -0.1619
     21 N          61.0202   88.4700   10.3024 N.ar    1  UNL1       -0.2105
     22 C          60.4473   87.1756    9.8061 C.ar    1  UNL1        0.1037
     23 C          61.0425   85.8726   10.2509 C.ar    1  UNL1        0.0414
     24 C          62.2105   85.8639   11.1919 C.ar    1  UNL1        0.1022
     25 N          62.7834   87.1583   11.6883 N.ar    1  UNL1       -0.2248
     26 C          62.1883   88.4614   11.2435 C.ar    1  UNL1        0.1697
@<TRIPOS>BOND
     1     1     2    1
     2     2     3   ar
     3     3     4   ar
     4     4    14    1
     5    14    15   am
     6    15    16    2
     7    15    18    1
     8    18    19   ar
     9    19    20   ar
    10    20    21   ar
    11    21    22   ar
    12    22    23   ar
    13    23    24   ar
    14    24    25   ar
    15    25    26   ar
    16     4     5   ar
    17     5     7    1
    18     7     8   ar
    19     8     9   ar
    20     9    10   ar
    21    10    11   ar
    22    11    12    1
    23    11    13   ar
    24     5     6   ar
    25     6     2   ar
    26    26    18   ar
    27    13     7   ar
    28    26    21   ar
    29    14    17    1
@<TRIPOS>MOLECULE
*****
 26 29 0 0 0
SMALL
GASTEIGER

@<TRIPOS>ATOM
      1 C          65.2955   91.4350   15.0642 C.3     1  UNL1        0.0540
      2 C          64.5632   90.4081   14.2522 C.ar    1  UNL1        0.0822
      3 C          64.6381   88.9213   14.4361 C.ar    1  UNL1        0.0509
      4 C          63.7486   88.2822   13.4113 C.ar    1  UNL1        0.1370
      5 N          63.1240   89.3739   12.5939 N.ar    1  UNL1       -0.2162
      6 N          63.6275   90.6878   13.1137 N.ar    1  UNL1       -0.1683
      7 C          62.1645   89.1849   11.4566 C.ar    1  UNL1        0.0850
      8 C          61.1249   90.2280   11.1712 C.ar    1  UNL1        0.0193
      9 C          60.1653   90.0390   10.0339 C.ar    1  UNL1        0.0024
     10 C          60.2453   88.8070    9.1819 C.ar    1  UNL1        0.0115
     11 C          61.2849   87.7640    9.4673 C.ar    1  UNL1        0.0592
     12 CL         61.3649   86.5320    8.6154 Cl      1  UNL1       -0.0822
     13 C          62.2445   87.9530   10.6047 C.ar    1  UNL1        0.0306
     14 N          63.5233   86.8097   13.2347 N.am    1  UNL1       -0.2656
     15 C          63.4401   85.9145   14.4354 C.2     1  UNL1        0.2551
     16 O          63.5823   86.4915   15.8126 O.2     1  UNL1       -0.2696
     17 H          63.4299   86.4309   12.3308 H       1  UNL1        0.1566
     18 C          63.2148   84.4420   14.2588 C.ar    1  UNL1        0.1102
     19 C          62.8254   83.4741   15.3364 C.ar    1  UNL1        0.1281
     20 N          62.7093   82.1129   14.7171 N.ar    1  UNL1       -0.1619
     21 N          63.0269   82.2395   13.2566 N.ar    1  UNL1       -0.2105
     22 C          63.0720   81.2300   12.1480 C.ar    1  UNL1        0.1037
     23 C          63.4295   81.6600   10.7562 C.ar    1  UNL1        0.0414
     24 C          63.7420   83.0995   10.4729 C.ar    1  UNL1        0.1022
     25 N          63.6969   84.1090   11.5815 N.ar    1  UNL1       -0.2248
     26 C          63.3393   83.6790   12.9733 C.ar    1  UNL1        0.1697
@<TRIPOS>BOND
     1     1     2    1
     2     2     3   ar
     3     3     4   ar
     4     4    14    1
     5    14    15   am
     6    15    16    2
     7    15    18    1
     8    18    19   ar
     9    19    20   ar
    10    20    21   ar
    11    21    22   ar
    12    22    23   ar
    13    23    24   ar
    14    24    25   ar
    15    25    26   ar
    16     4     5   ar
    17     5     7    1
    18     7     8   ar
    19     8     9   ar
    20     9    10   ar
    21    10    11   ar
    22    11    12    1
    23    11    13   ar
    24     5     6   ar
    25     6     2   ar
    26    26    18   ar
    27    13     7   ar
    28    26    21   ar
    29    14    17    1
@<TRIPOS>MOLECULE
*****
 26 29 0 0 0
SMALL
GASTEIGER

@<TRIPOS>ATOM
      1 C          62.7416   79.4934   13.2077 C.3     1  UNL1        0.0540
      2 C          62.6583   80.9857   13.0807 C.ar    1  UNL1        0.0822
      3 C          62.5262   81.9609   14.2128 C.ar    1  UNL1        0.0509
      4 C          62.4789   83.3427   13.6310 C.ar    1  UNL1        0.1370
      5 N          62.5817   83.2215   12.1395 N.ar    1  UNL1       -0.2162
      6 N          62.6927   81.7648   11.7994 N.ar    1  UNL1       -0.1683
      7 C          62.5749   84.3575   11.1600 C.ar    1  UNL1        0.0850
      8 C          63.1371   84.1639    9.7828 C.ar    1  UNL1        0.0193
      9 C          63.1303   85.2999    8.8034 C.ar    1  UNL1        0.0024
     10 C          62.5612   86.6296    9.2011 C.ar    1  UNL1        0.0115
     11 C          61.9990   86.8232   10.5781 C.ar    1  UNL1        0.0592
     12 CL         61.4299   88.1530   10.9758 Cl      1  UNL1       -0.0822
     13 C          62.0059   85.6872   11.5576 C.ar    1  UNL1        0.0306
     14 N          62.3511   84.6212   14.4050 N.am    1  UNL1       -0.2656
     15 C          63.5552   85.2185   15.0708 C.2     1  UNL1        0.2551
     16 O          64.8872   84.5373   14.9626 O.2     1  UNL1       -0.2696
     17 H          61.4768   85.0683   14.4760 H       1  UNL1        0.1566
     18 C          63.4273   86.4970   15.8448 C.ar    1  UNL1        0.1102
     19 C          63.0528   86.6178   17.2921 C.ar    1  UNL1        0.1281
     20 N          63.0455   88.0747   17.6490 N.ar    1  UNL1       -0.1619
     21 N          63.4156   88.8544   16.4222 N.ar    1  UNL1       -0.2105
     22 C          63.5682   90.3262   16.1764 C.ar    1  UNL1        0.1037
     23 C          63.9568   90.8230   14.8155 C.ar    1  UNL1        0.0414
     24 C          64.1928   89.8479   13.7003 C.ar    1  UNL1        0.1022
     25 N          64.0402   88.3760   13.9461 N.ar    1  UNL1       -0.2248
     26 C          63.6516   87.8792   15.3071 C.ar    1  UNL1        0.1697
@<TRIPOS>BOND
     1     1     2    1
     2     2     3   ar
     3     3     4   ar
     4     4    14    1
     5    14    15   am
     6    15    16    2
     7    15    18    1
     8    18    19   ar
     9    19    20   ar
    10    20    21   ar
    11    21    22   ar
    12    22    23   ar
    13    23    24   ar
    14    24    25   ar
    15    25    26   ar
    16     4     5   ar
    17     5     7    1
    18     7     8   ar
    19     8     9   ar
    20     9    10   ar
    21    10    11   ar
    22    11    12    1
    23    11    13   ar
    24     5     6   ar
    25     6     2   ar
    26    26    18   ar
    27    13     7   ar
    28    26    21   ar
    29    14    17    1
@<TRIPOS>MOLECULE
*****
 26 29 0 0 0
SMALL
GASTEIGER

@<TRIPOS>ATOM
      1 C          66.5823   93.7350   13.2551 C.3     1  UNL1        0.0540
      2 C          65.6506   92.5626   13.1689 C.ar    1  UNL1        0.0822
      3 C          65.6850   91.3430   14.0415 C.ar    1  UNL1        0.0509
      4 C          64.5765   90.4307   13.6069 C.ar    1  UNL1        0.1370
      5 N          63.8570   91.0864   12.4657 N.ar    1  UNL1       -0.2162
      6 N          64.5208   92.4040   12.1950 N.ar    1  UNL1       -0.1683
      7 C          62.6802   90.5234   11.7252 C.ar    1  UNL1        0.0850
      8 C          62.7559   90.3190   10.2411 C.ar    1  UNL1        0.0193
      9 C          61.5792   89.7560    9.5006 C.ar    1  UNL1        0.0024
     10 C          60.3268   89.3973   10.2442 C.ar    1  UNL1        0.0115
     11 C          60.2512   89.6017   11.7283 C.ar    1  UNL1        0.0592
     12 CL         58.9987   89.2431   12.4719 Cl      1  UNL1       -0.0822
     13 C          61.4279   90.1647   12.4687 C.ar    1  UNL1        0.0306
     14 N          64.2456   89.0968   14.2079 N.am    1  UNL1       -0.2656
     15 C          63.6288   89.0216   15.5731 C.2     1  UNL1        0.2551
     16 O          63.3427   90.2801   16.3373 O.2     1  UNL1       -0.2696
     17 H          64.4334   88.2707   13.7064 H       1  UNL1        0.1566
     18 C          63.2979   87.6876   16.1741 C.ar    1  UNL1        0.1102
     19 C          62.7700   87.4505   17.5579 C.ar    1  UNL1        0.1281
     20 N          62.5828   85.9729   17.7357 N.ar    1  UNL1       -0.1619
     21 N          62.9950   85.2967   16.4619 N.ar    1  UNL1       -0.2105
     22 C          63.0250   83.8530   16.0560 C.ar    1  UNL1        0.1037
     23 C          63.4970   83.4690   14.6850 C.ar    1  UNL1        0.0414
     24 C          63.9390   84.5287   13.7198 C.ar    1  UNL1        0.1022
     25 N          63.9090   85.9725   14.1256 N.ar    1  UNL1       -0.2248
     26 C          63.4370   86.3565   15.4967 C.ar    1  UNL1        0.1697
@<TRIPOS>BOND
     1     1     2    1
     2     2     3   ar
     3     3     4   ar
     4     4    14    1
     5    14    15   am
     6    15    16    2
     7    15    18    1
     8    18    19   ar
     9    19    20   ar
    10    20    21   ar
    11    21    22   ar
    12    22    23   ar
    13    23    24   ar
    14    24    25   ar
    15    25    26   ar
    16     4     5   ar
    17     5     7    1
    18     7     8   ar
    19     8     9   ar
    20     9    10   ar
    21    10    11   ar
    22    11    12    1
    23    11    13   ar
    24     5     6   ar
    25     6     2   ar
    26    26    18   ar
    27    13     7   ar
    28    26    21   ar
    29    14    17    1
@<TRIPOS>MOLECULE
*****
 26 29 0 0 0
SMALL
GASTEIGER

@<TRIPOS>ATOM
      1 C          64.0108   80.5396   13.9358 C.3     1  UNL1        0.0540
      2 C          63.6138   81.9848   13.8741 C.ar    1  UNL1        0.0822
      3 C          62.8743   82.6489   12.7506 C.ar    1  UNL1        0.0509
      4 C          62.6902   84.0942   13.1073 C.ar    1  UNL1        0.1370
      5 N          63.3159   84.3234   14.4511 N.ar    1  UNL1       -0.2162
      6 N          63.8868   83.0197   14.9250 N.ar    1  UNL1       -0.1683
      7 C          63.3626   85.6273   15.1911 C.ar    1  UNL1        0.0850
      8 C          62.7851   85.7271   16.5719 C.ar    1  UNL1        0.0193
      9 C          62.8318   87.0310   17.3120 C.ar    1  UNL1        0.0024
     10 C          63.4560   88.2351   16.6712 C.ar    1  UNL1        0.0115
     11 C          64.0335   88.1353   15.2904 C.ar    1  UNL1        0.0592
     12 CL         64.6578   89.3394   14.6496 Cl      1  UNL1       -0.0822
     13 C          63.9868   86.8314   14.5504 C.ar    1  UNL1        0.0306
     14 N          62.0013   85.1287   12.2675 N.am    1  UNL1       -0.2656
     15 C          62.2865   85.2125   10.7972 C.2     1  UNL1        0.2551
     16 O          63.2605   84.2619   10.1667 O.2     1  UNL1       -0.2696
     17 H          61.3620   85.7526   12.6813 H       1  UNL1        0.1566
     18 C          61.5975   86.2470    9.9575 C.ar    1  UNL1        0.1102
     19 C          61.1739   86.0830    8.5280 C.ar    1  UNL1        0.1281
     20 N          60.5258   87.3618    8.0870 N.ar    1  UNL1       -0.1619
     21 N          60.5490   88.3163    9.2438 N.ar    1  UNL1       -0.2105
     22 C          60.0525   89.7238    9.3939 C.ar    1  UNL1        0.1037
     23 C          60.2185   90.4423   10.7002 C.ar    1  UNL1        0.0414
     24 C          60.8808   89.7534   11.8563 C.ar    1  UNL1        0.1022
     25 N          61.3773   88.3458   11.7062 N.ar    1  UNL1       -0.2248
     26 C          61.2114   87.6273   10.3999 C.ar    1  UNL1        0.1697
@<TRIPOS>BOND
     1     1     2    1
     2     2     3   ar
     3     3     4   ar
     4     4    14    1
     5    14    15   am
     6    15    16    2
     7    15    18    1
     8    18    19   ar
     9    19    20   ar
    10    20    21   ar
    11    21    22   ar
    12    22    23   ar
    13    23    24   ar
    14    24    25   ar
    15    25    26   ar
    16     4     5   ar
    17     5     7    1
    18     7     8   ar
    19     8     9   ar
    20     9    10   ar
    21    10    11   ar
    22    11    12    1
    23    11    13   ar
    24     5     6   ar
    25     6     2   ar
    26    26    18   ar
    27    13     7   ar
    28    26    21   ar
    29    14    17    1
