@<TRIPOS>MOLECULE
*****
 34 38 0 0 0
SMALL
GASTEIGER

@<TRIPOS>ATOM
      1 C          61.4594   88.6069   11.2487 C.3     1  UNL1        0.1096
      2 C          60.4483   89.2754   10.3650 C.3     1  UNL1        0.1622
      3 O          59.7926   88.5037    9.2584 O.3     1  UNL1       -0.3502
      4 C          60.1480   87.0635    9.0355 C.3     1  UNL1        0.1637
      5 C          61.1590   86.3951    9.9192 C.3     1  UNL1        0.1257
      6 N          61.8147   87.1667   11.0258 N.am    1  UNL1       -0.2723
      7 C          62.8257   86.4982   11.9095 C.2     1  UNL1        0.2506
      8 O          63.4814   87.2699   13.0161 O.2     1  UNL1       -0.2699
      9 C          63.1811   85.0581   11.6866 C.ar    1  UNL1        0.0729
     10 C          63.3390   84.5319   10.2908 C.ar    1  UNL1        0.0061
     11 C          63.6944   83.0918   10.0679 C.ar    1  UNL1        0.0002
     12 C          63.8918   82.1778   11.2408 C.ar    1  UNL1        0.0016
     13 C          63.7338   82.7039   12.6365 C.ar    1  UNL1        0.0211
     14 C          63.3784   84.1441   12.8594 C.ar    1  UNL1        0.1072
     15 N          63.2205   84.6702   14.2553 N.ar    1  UNL1       -0.1477
     16 N          61.9477   84.6973   15.0485 N.ar    1  UNL1       -0.1447
     17 C          62.2481   85.3054   16.3864 C.ar    1  UNL1        0.1446
     18 C          63.7066   85.6542   16.4200 C.ar    1  UNL1        0.1446
     19 N          64.3076   85.2616   15.1029 N.ar    1  UNL1       -0.1447
     20 C          62.1150   89.3785   12.3553 C.3     1  UNL1        0.0487
     21 C          65.3212   92.3899   11.4057 C.ar    1  UNL1        0.1387
     22 C          64.2823   92.0512   10.3781 C.ar    1  UNL1        0.0366
     23 C          63.2136   91.0474   10.6947 C.ar    1  UNL1       -0.0011
     24 C          63.1837   90.3823   12.0388 C.ar    1  UNL1       -0.0202
     25 C          64.2226   90.7211   13.0663 C.ar    1  UNL1       -0.0011
     26 C          65.2913   91.7249   12.7498 C.ar    1  UNL1        0.0352
     27 C          66.3303   92.0636   13.7774 C.ar    1  UNL1        0.0221
     28 C          65.9134   92.4640   15.1616 C.ar    1  UNL1        0.0032
     29 C          66.9523   92.8026   16.1892 C.ar    1  UNL1        0.0207
     30 C          68.4080   92.7410   15.8327 C.ar    1  UNL1        0.0989
     31 N          68.8249   92.3406   14.4486 N.ar    1  UNL1       -0.2423
     32 C          67.7859   92.0019   13.4209 C.ar    1  UNL1        0.0989
     33 C          66.1472   94.8524   11.3410 C.3     1  UNL1        0.2525
     34 O          66.3899   93.3937   11.0891 O.3     1  UNL1       -0.4714
@<TRIPOS>BOND
     1    33    34    1
     2    34    21    1
     3    21    22   ar
     4    22    23   ar
     5    23    24   ar
     6    24    20    1
     7     1    20    1
     8     1     2    1
     9     2     3    1
    10     3     4    1
    11     4     5    1
    12     5     6    1
    13     6     7   am
    14     7     8    2
    15     7     9    1
    16     9    10   ar
    17    10    11   ar
    18    11    12   ar
    19    12    13   ar
    20    13    14   ar
    21    14    15    1
    22    15    16   ar
    23    16    17   ar
    24    17    18   ar
    25    18    19   ar
    26    24    25   ar
    27    25    26   ar
    28    26    27    1
    29    27    28   ar
    30    28    29   ar
    31    29    30   ar
    32    30    31   ar
    33    31    32   ar
    34    26    21   ar
    35    32    27   ar
    36     6     1    1
    37    14     9   ar
    38    19    15   ar
@<TRIPOS>MOLECULE
*****
 34 38 0 0 0
SMALL
GASTEIGER

@<TRIPOS>ATOM
      1 C          62.1640   89.5602   11.8990 C.3     1  UNL1        0.1096
      2 C          61.4758   90.6068   11.0736 C.3     1  UNL1        0.1622
      3 O          60.9126   90.2515    9.7296 O.3     1  UNL1       -0.3502
      4 C          61.0376   88.8496    9.2108 C.3     1  UNL1        0.1637
      5 C          61.7257   87.8030   10.0361 C.3     1  UNL1        0.1257
      6 N          62.2890   88.1583   11.3802 N.am    1  UNL1       -0.2723
      7 C          62.9772   87.1118   12.2055 C.2     1  UNL1        0.2506
      8 O          63.5404   87.4671   13.5495 O.2     1  UNL1       -0.2699
      9 C          63.1022   85.7099   11.6867 C.ar    1  UNL1        0.0729
     10 C          63.1272   85.4567   10.2085 C.ar    1  UNL1        0.0061
     11 C          63.2522   84.0548    9.6897 C.ar    1  UNL1        0.0002
     12 C          63.3521   82.9062   10.6491 C.ar    1  UNL1        0.0016
     13 C          63.3270   83.1594   12.1274 C.ar    1  UNL1        0.0211
     14 C          63.2021   84.5613   12.6461 C.ar    1  UNL1        0.1072
     15 N          63.1770   84.8145   14.1245 N.ar    1  UNL1       -0.1477
     16 N          64.3647   85.1267   14.9857 N.ar    1  UNL1       -0.1447
     17 C          63.8817   85.3051   16.3946 C.ar    1  UNL1        0.1446
     18 C          62.3953   85.1031   16.4040 C.ar    1  UNL1        0.1446
     19 N          61.9598   84.7999   15.0010 N.ar    1  UNL1       -0.1447
     20 C          62.7272   89.9155   13.2430 C.3     1  UNL1        0.0487
     21 C          66.6829   92.0410   13.5346 C.ar    1  UNL1        0.1387
     22 C          66.1865   91.2189   14.6868 C.ar    1  UNL1        0.0366
     23 C          64.8679   90.5104   14.5896 C.ar    1  UNL1       -0.0011
     24 C          64.0458   90.6240   13.3402 C.ar    1  UNL1       -0.0202
     25 C          64.5422   91.4461   12.1880 C.ar    1  UNL1       -0.0011
     26 C          65.8608   92.1546   12.2852 C.ar    1  UNL1        0.0352
     27 C          66.3571   92.9768   11.1329 C.ar    1  UNL1        0.0221
     28 C          67.4296   92.4372   10.2336 C.ar    1  UNL1        0.0032
     29 C          67.9260   93.2593    9.0814 C.ar    1  UNL1        0.0207
     30 C          67.3499   94.6210    8.8283 C.ar    1  UNL1        0.0989
     31 N          66.2774   95.1605    9.7275 N.ar    1  UNL1       -0.2423
     32 C          65.7810   94.3384   10.8799 C.ar    1  UNL1        0.0989
     33 C          68.7580   92.7516   14.9270 C.3     1  UNL1        0.2525
     34 O          68.0015   92.7495   13.6318 O.3     1  UNL1       -0.4714
@<TRIPOS>BOND
     1    33    34    1
     2    34    21    1
     3    21    22   ar
     4    22    23   ar
     5    23    24   ar
     6    24    20    1
     7     1    20    1
     8     1     2    1
     9     2     3    1
    10     3     4    1
    11     4     5    1
    12     5     6    1
    13     6     7   am
    14     7     8    2
    15     7     9    1
    16     9    10   ar
    17    10    11   ar
    18    11    12   ar
    19    12    13   ar
    20    13    14   ar
    21    14    15    1
    22    15    16   ar
    23    16    17   ar
    24    17    18   ar
    25    18    19   ar
    26    24    25   ar
    27    25    26   ar
    28    26    27    1
    29    27    28   ar
    30    28    29   ar
    31    29    30   ar
    32    30    31   ar
    33    31    32   ar
    34    26    21   ar
    35    32    27   ar
    36     6     1    1
    37    14     9   ar
    38    19    15   ar
@<TRIPOS>MOLECULE
*****
 34 38 0 0 0
SMALL
GASTEIGER

@<TRIPOS>ATOM
      1 C          63.2898   88.7668   15.3980 C.3     1  UNL1        0.1096
      2 C          63.1417   89.1023   16.8525 C.3     1  UNL1        0.1622
      3 O          63.0821   88.0047   17.8731 O.3     1  UNL1       -0.3502
      4 C          63.1707   86.5715   17.4392 C.3     1  UNL1        0.1637
      5 C          63.3188   86.2360   15.9848 C.3     1  UNL1        0.1257
      6 N          63.3784   87.3336   14.9641 N.am    1  UNL1       -0.2723
      7 C          63.5265   86.9981   13.5097 C.2     1  UNL1        0.2506
      8 O          63.5861   88.0957   12.4891 O.2     1  UNL1       -0.2699
      9 C          63.6151   85.5649   13.0759 C.ar    1  UNL1        0.0729
     10 C          64.4502   84.5948   13.8578 C.ar    1  UNL1        0.0061
     11 C          64.5388   83.1617   13.4240 C.ar    1  UNL1        0.0002
     12 C          63.7923   82.6986   12.2082 C.ar    1  UNL1        0.0016
     13 C          62.9571   83.6687   11.4262 C.ar    1  UNL1        0.0211
     14 C          62.8686   85.1018   11.8601 C.ar    1  UNL1        0.1072
     15 N          62.0334   86.0719   11.0781 N.ar    1  UNL1       -0.1477
     16 N          62.2542   86.4740    9.6499 N.ar    1  UNL1       -0.1447
     17 C          61.1881   87.4608    9.2761 C.ar    1  UNL1        0.1446
     18 C          60.3084   87.6685   10.4732 C.ar    1  UNL1        0.1446
     19 N          60.8308   86.8101   11.5869 N.ar    1  UNL1       -0.1447
     20 C          63.3494   89.8644   14.3774 C.3     1  UNL1        0.0487
     21 C          66.6858   92.8811   14.5095 C.ar    1  UNL1        0.1387
     22 C          66.0791   92.3774   15.7855 C.ar    1  UNL1        0.0366
     23 C          64.9670   91.3719   15.7415 C.ar    1  UNL1       -0.0011
     24 C          64.4615   90.8700   14.4214 C.ar    1  UNL1       -0.0202
     25 C          65.0682   91.3736   13.1454 C.ar    1  UNL1       -0.0011
     26 C          66.1803   92.3792   13.1895 C.ar    1  UNL1        0.0352
     27 C          66.7870   92.8829   11.9134 C.ar    1  UNL1        0.0221
     28 C          67.6712   91.9864   11.0983 C.ar    1  UNL1        0.0032
     29 C          68.2779   92.4900    9.8223 C.ar    1  UNL1        0.0207
     30 C          68.0003   93.8902    9.3613 C.ar    1  UNL1        0.0989
     31 N          67.1161   94.7867   10.1764 N.ar    1  UNL1       -0.2423
     32 C          66.5094   94.2831   11.4525 C.ar    1  UNL1        0.0989
     33 C          68.7398   93.9126   15.7207 C.3     1  UNL1        0.2525
     34 O          67.7979   93.8867   14.5536 O.3     1  UNL1       -0.4714
@<TRIPOS>BOND
     1    33    34    1
     2    34    21    1
     3    21    22   ar
     4    22    23   ar
     5    23    24   ar
     6    24    20    1
     7     1    20    1
     8     1     2    1
     9     2     3    1
    10     3     4    1
    11     4     5    1
    12     5     6    1
    13     6     7   am
    14     7     8    2
    15     7     9    1
    16     9    10   ar
    17    10    11   ar
    18    11    12   ar
    19    12    13   ar
    20    13    14   ar
    21    14    15    1
    22    15    16   ar
    23    16    17   ar
    24    17    18   ar
    25    18    19   ar
    26    24    25   ar
    27    25    26   ar
    28    26    27    1
    29    27    28   ar
    30    28    29   ar
    31    29    30   ar
    32    30    31   ar
    33    31    32   ar
    34    26    21   ar
    35    32    27   ar
    36     6     1    1
    37    14     9   ar
    38    19    15   ar
