@<TRIPOS>MOLECULE
*****
 37 40 0 0 0
SMALL
GASTEIGER

@<TRIPOS>ATOM
      1 C          60.8568   88.7464    9.3566 C.ar    1  UNL1       -0.0024
      2 C          60.1577   89.2991    8.1500 C.ar    1  UNL1       -0.0003
      3 C          59.1451   88.4653    7.4223 C.ar    1  UNL1       -0.0000
      4 C          58.8316   87.0788    7.9013 C.ar    1  UNL1       -0.0003
      5 C          59.5307   86.5261    9.1079 C.ar    1  UNL1       -0.0026
      6 C          60.5433   87.3599    9.8355 C.ar    1  UNL1       -0.0023
      7 C          63.8946   91.2477   11.5395 C.ar    1  UNL1       -0.0061
      8 C          63.5078   91.5960   10.1326 C.ar    1  UNL1       -0.0029
      9 C          62.4952   90.7622    9.4050 C.ar    1  UNL1       -0.0003
     10 C          61.8694   89.5802   10.0842 C.ar    1  UNL1       -0.0003
     11 C          62.2562   89.2320   11.4910 C.ar    1  UNL1       -0.0003
     12 C          63.2688   90.0658   12.2186 C.ar    1  UNL1       -0.0029
     13 C          64.9072   92.0815   12.2671 C.3     1  UNL1        0.0992
     14 C          66.6186   96.7829   10.8642 C.3     1  UNL1        0.0186
     15 C          66.7233   95.2882   10.7943 C.3     1  UNL1        0.0702
     16 C          65.7629   94.4322   11.5656 C.3     1  UNL1        0.0882
     17 N          65.8676   92.9375   11.4957 N.3     1  UNL1       -0.2666
     18 C          66.9327   92.2988   10.6546 C.3     1  UNL1        0.0882
     19 C          67.8931   93.1548    9.8833 C.3     1  UNL1        0.0702
     20 C          68.9582   92.5160    9.0420 C.3     1  UNL1        0.0186
     21 N          67.7884   94.6495    9.9532 N.3     1  UNL1       -0.2974
     22 H          67.6471   94.9797    8.9985 H       1  UNL1        0.1232
     23 C          61.2423   86.8072   11.0421 C.3     1  UNL1        0.1202
     24 N          62.3145   85.7710   10.8787 N.am    1  UNL1       -0.2722
     25 C          62.7939   85.3978    9.5073 C.3     1  UNL1        0.1152
     26 C          62.9073   85.1081   12.0866 C.2     1  UNL1        0.2505
     27 O          62.4278   85.4813   13.4581 O.2     1  UNL1       -0.2729
     28 C          63.9794   84.0719   11.9232 C.3     1  UNL1        0.2404
     29 S          63.6085   82.6493   11.6258 S.O2    1  UNL1        0.0176
     30 O          62.5089   82.7233   12.6434 O.2     1  UNL1       -0.1682
     31 O          64.7080   82.5753   10.6082 O.2     1  UNL1       -0.1682
     32 C          63.2375   81.2266   11.3284 C.ar    1  UNL1        0.1062
     33 C          62.8447   80.3049   12.4447 C.ar    1  UNL1        0.0184
     34 C          62.4738   78.8823   12.1473 C.ar    1  UNL1        0.0013
     35 C          62.4956   78.3813   10.7336 C.ar    1  UNL1        0.0001
     36 C          62.8885   79.3030    9.6172 C.ar    1  UNL1        0.0013
     37 C          63.2594   80.7257    9.9146 C.ar    1  UNL1        0.0184
@<TRIPOS>BOND
     1    15    14    1
     2    15    16    1
     3    16    17    1
     4    17    13    1
     5    13     7    1
     6     7     8   ar
     7     8     9   ar
     8     9    10   ar
     9    10     1    1
    10     1     2   ar
    11     2     3   ar
    12     3     4   ar
    13     4     5   ar
    14     5     6   ar
    15     6    23    1
    16    23    24    1
    17    24    25    1
    18    24    26   am
    19    26    27    2
    20    26    28    1
    21    28    29    1
    22    29    30    2
    23    29    31    2
    24    29    32    1
    25    32    33   ar
    26    33    34   ar
    27    34    35   ar
    28    35    36   ar
    29    36    37   ar
    30    10    11   ar
    31    11    12   ar
    32    17    18    1
    33    18    19    1
    34    19    20    1
    35    19    21    1
    36    21    15    1
    37    12     7   ar
    38     6     1   ar
    39    37    32   ar
    40    21    22    1
@<TRIPOS>MOLECULE
*****
 37 40 0 0 0
SMALL
GASTEIGER

@<TRIPOS>ATOM
      1 C          60.7649   88.8187    9.4657 C.ar    1  UNL1       -0.0024
      2 C          60.2000   89.5223    8.2674 C.ar    1  UNL1       -0.0003
      3 C          59.3546   88.7681    7.2842 C.ar    1  UNL1       -0.0000
      4 C          59.0743   87.3103    7.4994 C.ar    1  UNL1       -0.0003
      5 C          59.6392   86.6067    8.6976 C.ar    1  UNL1       -0.0026
      6 C          60.4845   87.3609    9.6808 C.ar    1  UNL1       -0.0023
      7 C          63.3009   91.0813   12.4152 C.ar    1  UNL1       -0.0061
      8 C          63.5718   91.2027   10.9448 C.ar    1  UNL1       -0.0029
      9 C          62.7265   90.4485    9.9616 C.ar    1  UNL1       -0.0003
     10 C          61.6102   89.5729   10.4489 C.ar    1  UNL1       -0.0003
     11 C          61.3393   89.4515   11.9192 C.ar    1  UNL1       -0.0003
     12 C          62.1847   90.2057   12.9023 C.ar    1  UNL1       -0.0029
     13 C          64.1462   91.8355   13.3983 C.3     1  UNL1        0.0992
     14 C          68.9507   92.1783   15.3476 C.3     1  UNL1        0.0186
     15 C          68.0305   92.1084   14.1650 C.3     1  UNL1        0.0702
     16 C          66.5485   92.0069   14.3729 C.3     1  UNL1        0.0882
     17 N          65.6283   91.9370   13.1904 N.3     1  UNL1       -0.2666
     18 C          66.1901   91.9687   11.8000 C.3     1  UNL1        0.0882
     19 C          67.6721   92.0703   11.5921 C.3     1  UNL1        0.0702
     20 C          68.2341   92.1020   10.2016 C.3     1  UNL1        0.0186
     21 N          68.5923   92.1401   12.7746 N.3     1  UNL1       -0.2974
     22 H          69.1166   93.0108   12.6887 H       1  UNL1        0.1232
     23 C          61.0494   86.6573   10.8791 C.3     1  UNL1        0.1202
     24 N          62.1494   85.6518   10.7089 N.am    1  UNL1       -0.2722
     25 C          62.6301   85.2915    9.3345 C.3     1  UNL1        0.1152
     26 C          62.7687   85.0067   11.9132 C.2     1  UNL1        0.2505
     27 O          62.2880   85.3670   13.2876 O.2     1  UNL1       -0.2729
     28 C          63.8687   84.0012   11.7431 C.3     1  UNL1        0.2404
     29 S          63.5355   82.5605   11.4912 S.O2    1  UNL1        0.0176
     30 O          64.6983   82.4563   10.5493 O.2     1  UNL1       -0.1682
     31 O          62.3727   82.6647   12.4330 O.2     1  UNL1       -0.1682
     32 C          63.2024   81.1198   11.2393 C.ar    1  UNL1        0.1062
     33 C          63.2692   80.5670    9.8465 C.ar    1  UNL1        0.0184
     34 C          62.9360   79.1263    9.5946 C.ar    1  UNL1        0.0013
     35 C          62.5361   78.2384   10.7355 C.ar    1  UNL1        0.0001
     36 C          62.4692   78.7912   12.1284 C.ar    1  UNL1        0.0013
     37 C          62.8024   80.2319   12.3803 C.ar    1  UNL1        0.0184
@<TRIPOS>BOND
     1    15    14    1
     2    15    16    1
     3    16    17    1
     4    17    13    1
     5    13     7    1
     6     7     8   ar
     7     8     9   ar
     8     9    10   ar
     9    10     1    1
    10     1     2   ar
    11     2     3   ar
    12     3     4   ar
    13     4     5   ar
    14     5     6   ar
    15     6    23    1
    16    23    24    1
    17    24    25    1
    18    24    26   am
    19    26    27    2
    20    26    28    1
    21    28    29    1
    22    29    30    2
    23    29    31    2
    24    29    32    1
    25    32    33   ar
    26    33    34   ar
    27    34    35   ar
    28    35    36   ar
    29    36    37   ar
    30    10    11   ar
    31    11    12   ar
    32    17    18    1
    33    18    19    1
    34    19    20    1
    35    19    21    1
    36    21    15    1
    37    12     7   ar
    38     6     1   ar
    39    37    32   ar
    40    21    22    1
@<TRIPOS>MOLECULE
*****
 37 40 0 0 0
SMALL
GASTEIGER

@<TRIPOS>ATOM
      1 C          60.5461   87.3336    8.3650 C.ar    1  UNL1       -0.0024
      2 C          59.3778   86.9139    7.5229 C.ar    1  UNL1       -0.0003
      3 C          58.4854   87.9510    6.9081 C.ar    1  UNL1       -0.0000
      4 C          58.7612   89.4078    7.1354 C.ar    1  UNL1       -0.0003
      5 C          59.9294   89.8275    7.9774 C.ar    1  UNL1       -0.0026
      6 C          60.8218   88.7904    8.5923 C.ar    1  UNL1       -0.0023
      7 C          63.2234   84.2224   10.2095 C.ar    1  UNL1       -0.0061
      8 C          62.1840   84.9085   11.0456 C.ar    1  UNL1       -0.0029
      9 C          61.2916   85.9456   10.4308 C.ar    1  UNL1       -0.0003
     10 C          61.4385   86.2966    8.9798 C.ar    1  UNL1       -0.0003
     11 C          62.4778   85.6104    8.1437 C.ar    1  UNL1       -0.0003
     12 C          63.3702   84.5734    8.7585 C.ar    1  UNL1       -0.0029
     13 C          64.1158   83.1853   10.8243 C.3     1  UNL1        0.0992
     14 C          64.0865   83.7454   15.9901 C.3     1  UNL1        0.0186
     15 C          63.7916   82.9227   14.7709 C.3     1  UNL1        0.0702
     16 C          64.1011   83.4653   13.4072 C.3     1  UNL1        0.0882
     17 N          63.8063   82.6427   12.1881 N.3     1  UNL1       -0.2666
     18 C          63.2019   81.2775   12.3326 C.3     1  UNL1        0.0882
     19 C          62.8924   80.7349   13.6964 C.3     1  UNL1        0.0702
     20 C          62.2880   79.3696   13.8410 C.3     1  UNL1        0.0186
     21 N          63.1873   81.5575   14.9155 N.3     1  UNL1       -0.2974
     22 H          63.8280   81.0114   15.4914 H       1  UNL1        0.1232
     23 C          61.9901   89.2102    9.4344 C.3     1  UNL1        0.1202
     24 N          61.7608   89.8010   10.7939 N.am    1  UNL1       -0.2722
     25 C          60.8136   90.9519   10.9614 C.3     1  UNL1        0.1152
     26 C          62.4788   89.2410   11.9858 C.2     1  UNL1        0.2505
     27 O          63.4261   88.0901   11.8183 O.2     1  UNL1       -0.2729
     28 C          62.2495   89.8319   13.3453 C.3     1  UNL1        0.2404
     29 S          63.3810   90.4905   14.0774 S.O2    1  UNL1        0.0176
     30 O          62.9389   89.8338   15.3515 O.2     1  UNL1       -0.1682
     31 O          63.8232   91.1471   12.8033 O.2     1  UNL1       -0.1682
     32 C          64.5125   91.1491   14.8095 C.ar    1  UNL1        0.1062
     33 C          64.2720   91.7833   16.1473 C.ar    1  UNL1        0.0184
     34 C          65.4035   92.4419   16.8794 C.ar    1  UNL1        0.0013
     35 C          66.7755   92.4663   16.2737 C.ar    1  UNL1        0.0001
     36 C          67.0161   91.8321   14.9358 C.ar    1  UNL1        0.0013
     37 C          65.8846   91.1734   14.2037 C.ar    1  UNL1        0.0184
@<TRIPOS>BOND
     1    15    14    1
     2    15    16    1
     3    16    17    1
     4    17    13    1
     5    13     7    1
     6     7     8   ar
     7     8     9   ar
     8     9    10   ar
     9    10     1    1
    10     1     2   ar
    11     2     3   ar
    12     3     4   ar
    13     4     5   ar
    14     5     6   ar
    15     6    23    1
    16    23    24    1
    17    24    25    1
    18    24    26   am
    19    26    27    2
    20    26    28    1
    21    28    29    1
    22    29    30    2
    23    29    31    2
    24    29    32    1
    25    32    33   ar
    26    33    34   ar
    27    34    35   ar
    28    35    36   ar
    29    36    37   ar
    30    10    11   ar
    31    11    12   ar
    32    17    18    1
    33    18    19    1
    34    19    20    1
    35    19    21    1
    36    21    15    1
    37    12     7   ar
    38     6     1   ar
    39    37    32   ar
    40    21    22    1
@<TRIPOS>MOLECULE
*****
 37 40 0 0 0
SMALL
GASTEIGER

@<TRIPOS>ATOM
      1 C          60.8126   87.5445    8.6588 C.ar    1  UNL1       -0.0024
      2 C          59.8702   87.3503    7.5080 C.ar    1  UNL1       -0.0003
      3 C          59.0646   88.5069    6.9949 C.ar    1  UNL1       -0.0000
      4 C          59.2016   89.8578    7.6326 C.ar    1  UNL1       -0.0003
      5 C          60.1440   90.0519    8.7833 C.ar    1  UNL1       -0.0026
      6 C          60.9495   88.8953    9.2963 C.ar    1  UNL1       -0.0023
      7 C          63.2292   84.0745   10.1980 C.ar    1  UNL1       -0.0061
      8 C          63.3731   84.5144    8.7711 C.ar    1  UNL1       -0.0029
      9 C          62.5676   85.6710    8.2581 C.ar    1  UNL1       -0.0003
     10 C          61.6182   86.3878    9.1718 C.ar    1  UNL1       -0.0003
     11 C          61.4743   85.9479   10.5986 C.ar    1  UNL1       -0.0003
     12 C          62.2798   84.7912   11.1117 C.ar    1  UNL1       -0.0029
     13 C          64.0348   82.9178   10.7111 C.3     1  UNL1        0.0992
     14 C          62.1249   79.1594   13.7486 C.3     1  UNL1        0.0186
     15 C          62.8103   80.4850   13.5977 C.3     1  UNL1        0.0702
     16 C          63.0798   81.0386   12.2299 C.3     1  UNL1        0.0882
     17 N          63.7652   82.3643   12.0790 N.3     1  UNL1       -0.2666
     18 C          64.1811   83.1364   13.2958 C.3     1  UNL1        0.0882
     19 C          63.9116   82.5828   14.6636 C.3     1  UNL1        0.0702
     20 C          64.3275   83.3550   15.8806 C.3     1  UNL1        0.0186
     21 N          63.2262   81.2572   14.8146 N.3     1  UNL1       -0.2974
     22 H          62.3811   81.4232   15.3610 H       1  UNL1        0.1232
     23 C          61.8920   89.0894   10.4471 C.3     1  UNL1        0.1202
     24 N          62.6922   90.3535   10.5561 N.am    1  UNL1       -0.2722
     25 C          62.6871   91.3438    9.4295 C.3     1  UNL1        0.1152
     26 C          63.4974   90.6272   11.7917 C.2     1  UNL1        0.2505
     27 O          63.5025   89.6369   12.9183 O.2     1  UNL1       -0.2729
     28 C          64.2976   91.8912   11.9007 C.3     1  UNL1        0.2404
     29 S          65.3580   92.0191   12.9538 S.O2    1  UNL1        0.0176
     30 O          64.3141   91.8793   14.0219 O.2     1  UNL1       -0.1682
     31 O          66.4019   92.1590   11.8858 O.2     1  UNL1       -0.1682
     32 C          66.4184   92.1470   14.0070 C.ar    1  UNL1        0.1062
     33 C          66.0341   92.4441   15.4261 C.ar    1  UNL1        0.0184
     34 C          67.0946   92.5720   16.4793 C.ar    1  UNL1        0.0013
     35 C          68.5393   92.4028   16.1133 C.ar    1  UNL1        0.0001
     36 C          68.9237   92.1058   14.6941 C.ar    1  UNL1        0.0013
     37 C          67.8633   91.9779   13.6409 C.ar    1  UNL1        0.0184
@<TRIPOS>BOND
     1    15    14    1
     2    15    16    1
     3    16    17    1
     4    17    13    1
     5    13     7    1
     6     7     8   ar
     7     8     9   ar
     8     9    10   ar
     9    10     1    1
    10     1     2   ar
    11     2     3   ar
    12     3     4   ar
    13     4     5   ar
    14     5     6   ar
    15     6    23    1
    16    23    24    1
    17    24    25    1
    18    24    26   am
    19    26    27    2
    20    26    28    1
    21    28    29    1
    22    29    30    2
    23    29    31    2
    24    29    32    1
    25    32    33   ar
    26    33    34   ar
    27    34    35   ar
    28    35    36   ar
    29    36    37   ar
    30    10    11   ar
    31    11    12   ar
    32    17    18    1
    33    18    19    1
    34    19    20    1
    35    19    21    1
    36    21    15    1
    37    12     7   ar
    38     6     1   ar
    39    37    32   ar
    40    21    22    1
@<TRIPOS>MOLECULE
*****
 37 40 0 0 0
SMALL
GASTEIGER

@<TRIPOS>ATOM
      1 C          60.3252   89.4864    8.5076 C.ar    1  UNL1       -0.0024
      2 C          60.2771   90.5468    7.4477 C.ar    1  UNL1       -0.0003
      3 C          59.5124   90.3059    6.1800 C.ar    1  UNL1       -0.0000
      4 C          58.7958   89.0046    5.9721 C.ar    1  UNL1       -0.0003
      5 C          58.8439   87.9443    7.0320 C.ar    1  UNL1       -0.0026
      6 C          59.6086   88.1852    8.2997 C.ar    1  UNL1       -0.0023
      7 C          62.6193   90.2092   12.3109 C.ar    1  UNL1       -0.0061
      8 C          61.1384   90.4447   12.2720 C.ar    1  UNL1       -0.0029
      9 C          60.3737   90.2038   11.0043 C.ar    1  UNL1       -0.0003
     10 C          61.0899   89.7273    9.7754 C.ar    1  UNL1       -0.0003
     11 C          62.5708   89.4918    9.8143 C.ar    1  UNL1       -0.0003
     12 C          63.3355   89.7327   11.0820 C.ar    1  UNL1       -0.0029
     13 C          63.3841   90.4501   13.5786 C.3     1  UNL1        0.0992
     14 C          67.3007   92.7578   16.0955 C.3     1  UNL1        0.0186
     15 C          66.4790   92.5826   14.8529 C.3     1  UNL1        0.0702
     16 C          65.3424   91.6040   14.8371 C.3     1  UNL1        0.0882
     17 N          64.5208   91.4288   13.5944 N.3     1  UNL1       -0.2666
     18 C          64.8358   92.2322   12.3675 C.3     1  UNL1        0.0882
     19 C          65.9724   93.2108   12.3833 C.3     1  UNL1        0.0702
     20 C          66.2875   94.0143   11.1564 C.3     1  UNL1        0.0186
     21 N          66.7941   93.3860   13.6260 N.3     1  UNL1       -0.2974
     22 H          66.7217   94.3684   13.8907 H       1  UNL1        0.1232
     23 C          59.6567   87.1248    9.3597 C.3     1  UNL1        0.1202
     24 N          60.9208   86.3506    9.5892 N.am    1  UNL1       -0.2722
     25 C          61.5814   85.6375    8.4469 C.3     1  UNL1        0.1152
     26 C          61.5243   86.2896   10.9611 C.2     1  UNL1        0.2505
     27 O          60.8637   87.0027   12.1034 O.2     1  UNL1       -0.2729
     28 C          62.7883   85.5154   11.1907 C.3     1  UNL1        0.2404
     29 S          62.7264   84.1321   11.7676 S.O2    1  UNL1        0.0176
     30 O          63.2052   83.5667   10.4633 O.2     1  UNL1       -0.1682
     31 O          62.2476   84.6975   13.0718 O.2     1  UNL1       -0.1682
     32 C          62.6644   82.7489   12.3445 C.ar    1  UNL1        0.1062
     33 C          62.3024   82.5534   13.7869 C.ar    1  UNL1        0.0184
     34 C          62.2404   81.1702   14.3638 C.ar    1  UNL1        0.0013
     35 C          62.5405   79.9824   13.4983 C.ar    1  UNL1        0.0001
     36 C          62.9026   80.1779   12.0557 C.ar    1  UNL1        0.0013
     37 C          62.9646   81.5611   11.4788 C.ar    1  UNL1        0.0184
@<TRIPOS>BOND
     1    15    14    1
     2    15    16    1
     3    16    17    1
     4    17    13    1
     5    13     7    1
     6     7     8   ar
     7     8     9   ar
     8     9    10   ar
     9    10     1    1
    10     1     2   ar
    11     2     3   ar
    12     3     4   ar
    13     4     5   ar
    14     5     6   ar
    15     6    23    1
    16    23    24    1
    17    24    25    1
    18    24    26   am
    19    26    27    2
    20    26    28    1
    21    28    29    1
    22    29    30    2
    23    29    31    2
    24    29    32    1
    25    32    33   ar
    26    33    34   ar
    27    34    35   ar
    28    35    36   ar
    29    36    37   ar
    30    10    11   ar
    31    11    12   ar
    32    17    18    1
    33    18    19    1
    34    19    20    1
    35    19    21    1
    36    21    15    1
    37    12     7   ar
    38     6     1   ar
    39    37    32   ar
    40    21    22    1
@<TRIPOS>MOLECULE
*****
 37 40 0 0 0
SMALL
GASTEIGER

@<TRIPOS>ATOM
      1 C          63.2830   85.3327   12.6409 C.ar    1  UNL1       -0.0024
      2 C          63.4601   84.1144   13.4979 C.ar    1  UNL1       -0.0003
      3 C          63.2493   82.7492   12.9134 C.ar    1  UNL1       -0.0000
      4 C          62.8614   82.6022   11.4718 C.ar    1  UNL1       -0.0003
      5 C          62.6844   83.8205   10.6148 C.ar    1  UNL1       -0.0026
      6 C          62.8952   85.1858   11.1994 C.ar    1  UNL1       -0.0023
      7 C          63.9154   89.4284   14.3945 C.ar    1  UNL1       -0.0061
      8 C          63.3411   89.2831   13.0164 C.ar    1  UNL1       -0.0029
      9 C          63.1303   87.9179   12.4319 C.ar    1  UNL1       -0.0003
     10 C          63.4938   86.6979   13.2254 C.ar    1  UNL1       -0.0003
     11 C          64.0681   86.8433   14.6035 C.ar    1  UNL1       -0.0003
     12 C          64.2788   88.2085   15.1880 C.ar    1  UNL1       -0.0029
     13 C          64.1262   90.7937   14.9791 C.3     1  UNL1        0.0992
     14 C          66.2361   93.3680   10.9889 C.3     1  UNL1        0.0186
     15 C          66.2547   92.9737   12.4360 C.3     1  UNL1        0.0702
     16 C          65.1812   92.0808   12.9840 C.3     1  UNL1        0.0882
     17 N          65.1998   91.6865   14.4311 N.3     1  UNL1       -0.2666
     18 C          66.2920   92.1851   15.3303 C.3     1  UNL1        0.0882
     19 C          67.3655   93.0779   14.7823 C.3     1  UNL1        0.0702
     20 C          68.4578   93.5765   15.6815 C.3     1  UNL1        0.0186
     21 N          67.3469   93.4722   13.3352 N.3     1  UNL1       -0.2974
     22 H          68.2283   93.1543   12.9320 H       1  UNL1        0.1232
     23 C          62.7181   86.4041   10.3424 C.3     1  UNL1        0.1202
     24 N          61.6542   86.4293    9.2853 N.am    1  UNL1       -0.2722
     25 C          61.8608   85.6917    7.9956 C.3     1  UNL1        0.1152
     26 C          60.3838   87.1921    9.5178 C.2     1  UNL1        0.2505
     27 O          60.1772   87.9297   10.8074 O.2     1  UNL1       -0.2729
     28 C          59.3199   87.2173    8.4607 C.3     1  UNL1        0.2404
     29 S          59.2516   88.3609    7.4925 S.O2    1  UNL1        0.0176
     30 O          59.7052   89.3004    8.5703 O.2     1  UNL1       -0.1682
     31 O          58.7980   87.4214    6.4148 O.2     1  UNL1       -0.1682
     32 C          59.1832   89.5046    6.5243 C.ar    1  UNL1        0.1062
     33 C          60.4407   90.0410    5.9072 C.ar    1  UNL1        0.0184
     34 C          60.3724   91.1846    4.9390 C.ar    1  UNL1        0.0013
     35 C          59.0465   91.7919    4.5880 C.ar    1  UNL1        0.0001
     36 C          57.7889   91.2555    5.2052 C.ar    1  UNL1        0.0013
     37 C          57.8573   90.1119    6.1733 C.ar    1  UNL1        0.0184
@<TRIPOS>BOND
     1    15    14    1
     2    15    16    1
     3    16    17    1
     4    17    13    1
     5    13     7    1
     6     7     8   ar
     7     8     9   ar
     8     9    10   ar
     9    10     1    1
    10     1     2   ar
    11     2     3   ar
    12     3     4   ar
    13     4     5   ar
    14     5     6   ar
    15     6    23    1
    16    23    24    1
    17    24    25    1
    18    24    26   am
    19    26    27    2
    20    26    28    1
    21    28    29    1
    22    29    30    2
    23    29    31    2
    24    29    32    1
    25    32    33   ar
    26    33    34   ar
    27    34    35   ar
    28    35    36   ar
    29    36    37   ar
    30    10    11   ar
    31    11    12   ar
    32    17    18    1
    33    18    19    1
    34    19    20    1
    35    19    21    1
    36    21    15    1
    37    12     7   ar
    38     6     1   ar
    39    37    32   ar
    40    21    22    1
@<TRIPOS>MOLECULE
*****
 37 40 0 0 0
SMALL
GASTEIGER

@<TRIPOS>ATOM
      1 C          63.2408   85.3287   12.8468 C.ar    1  UNL1       -0.0024
      2 C          63.3931   84.1060   13.7023 C.ar    1  UNL1       -0.0003
      3 C          63.1484   82.7464   13.1179 C.ar    1  UNL1       -0.0000
      4 C          62.7513   82.6095   11.6778 C.ar    1  UNL1       -0.0003
      5 C          62.5990   83.8321   10.8223 C.ar    1  UNL1       -0.0026
      6 C          62.8437   85.1917   11.4068 C.ar    1  UNL1       -0.0023
      7 C          63.9752   89.4074   14.6002 C.ar    1  UNL1       -0.0061
      8 C          64.1530   88.1832   15.4486 C.ar    1  UNL1       -0.0029
      9 C          63.9082   86.8236   14.8641 C.ar    1  UNL1       -0.0003
     10 C          63.4856   86.6883   13.4312 C.ar    1  UNL1       -0.0003
     11 C          63.3078   87.9124   12.5829 C.ar    1  UNL1       -0.0003
     12 C          63.5526   89.2720   13.1673 C.ar    1  UNL1       -0.0029
     13 C          64.2200   90.7670   15.1846 C.3     1  UNL1        0.0992
     14 C          68.4922   93.6685   15.7591 C.3     1  UNL1        0.0186
     15 C          67.4104   93.1081   14.8839 C.3     1  UNL1        0.0702
     16 C          66.3561   92.2178   15.4718 C.3     1  UNL1        0.0882
     17 N          65.2744   91.6574   14.5967 N.3     1  UNL1       -0.2666
     18 C          65.2470   91.9873   13.1337 C.3     1  UNL1        0.0882
     19 C          66.3013   92.8776   12.5459 C.3     1  UNL1        0.0702
     20 C          66.2740   93.2076   11.0828 C.3     1  UNL1        0.0186
     21 N          67.3831   93.4380   13.4210 N.3     1  UNL1       -0.2974
     22 H          67.3232   94.4537   13.3493 H       1  UNL1        0.1232
     23 C          62.6914   86.4144   10.5512 C.3     1  UNL1        0.1202
     24 N          61.3231   86.9060   10.1824 N.am    1  UNL1       -0.2722
     25 C          60.4652   87.5790   11.2124 C.3     1  UNL1        0.1152
     26 C          60.8128   86.7247    8.7836 C.2     1  UNL1        0.2505
     27 O          61.6708   86.0517    7.7536 O.2     1  UNL1       -0.2729
     28 C          59.4446   87.2163    8.4148 C.3     1  UNL1        0.2404
     29 S          59.2915   88.3575    7.4534 S.O2    1  UNL1        0.0176
     30 O          59.6784   89.3212    8.5358 O.2     1  UNL1       -0.1682
     31 O          58.9046   87.3937    6.3710 O.2     1  UNL1       -0.1682
     32 C          59.1384   89.4987    6.4920 C.ar    1  UNL1        0.1062
     33 C          57.7738   90.0350    6.1757 C.ar    1  UNL1        0.0184
     34 C          57.6208   91.1762    5.2143 C.ar    1  UNL1        0.0013
     35 C          58.8323   91.7811    4.5693 C.ar    1  UNL1        0.0001
     36 C          60.1971   91.2448    4.8856 C.ar    1  UNL1        0.0013
     37 C          60.3501   90.1036    5.8470 C.ar    1  UNL1        0.0184
@<TRIPOS>BOND
     1    15    14    1
     2    15    16    1
     3    16    17    1
     4    17    13    1
     5    13     7    1
     6     7     8   ar
     7     8     9   ar
     8     9    10   ar
     9    10     1    1
    10     1     2   ar
    11     2     3   ar
    12     3     4   ar
    13     4     5   ar
    14     5     6   ar
    15     6    23    1
    16    23    24    1
    17    24    25    1
    18    24    26   am
    19    26    27    2
    20    26    28    1
    21    28    29    1
    22    29    30    2
    23    29    31    2
    24    29    32    1
    25    32    33   ar
    26    33    34   ar
    27    34    35   ar
    28    35    36   ar
    29    36    37   ar
    30    10    11   ar
    31    11    12   ar
    32    17    18    1
    33    18    19    1
    34    19    20    1
    35    19    21    1
    36    21    15    1
    37    12     7   ar
    38     6     1   ar
    39    37    32   ar
    40    21    22    1
@<TRIPOS>MOLECULE
*****
 37 40 0 0 0
SMALL
GASTEIGER

@<TRIPOS>ATOM
      1 C          59.7447   88.5533    7.1670 C.ar    1  UNL1       -0.0024
      2 C          59.5910   87.1675    6.6136 C.ar    1  UNL1       -0.0003
      3 C          59.6646   85.9818    7.5294 C.ar    1  UNL1       -0.0000
      4 C          59.8918   86.1819    8.9986 C.ar    1  UNL1       -0.0003
      5 C          60.0455   87.5676    9.5519 C.ar    1  UNL1       -0.0026
      6 C          59.9720   88.7533    8.6361 C.ar    1  UNL1       -0.0023
      7 C          59.5242   92.1103    4.4195 C.ar    1  UNL1       -0.0061
      8 C          60.8454   91.4549    4.6933 C.ar    1  UNL1       -0.0029
      9 C          60.9189   90.2692    5.6091 C.ar    1  UNL1       -0.0003
     10 C          59.6712   89.7390    6.2512 C.ar    1  UNL1       -0.0003
     11 C          58.3501   90.3944    5.9774 C.ar    1  UNL1       -0.0003
     12 C          58.2766   91.5801    5.0615 C.ar    1  UNL1       -0.0029
     13 C          59.4506   93.2960    3.5037 C.3     1  UNL1        0.0992
     14 C          59.0928   92.7662   -1.6530 C.3     1  UNL1        0.0186
     15 C          59.9256   92.9785   -0.4236 C.3     1  UNL1        0.0702
     16 C          59.2718   93.0311    0.9253 C.3     1  UNL1        0.0882
     17 N          60.1046   93.2435    2.1547 N.3     1  UNL1       -0.2666
     18 C          61.5912   93.4032    2.0352 C.3     1  UNL1        0.0882
     19 C          62.2450   93.3506    0.6862 C.3     1  UNL1        0.0702
     20 C          63.7318   93.5104    0.5666 C.3     1  UNL1        0.0186
     21 N          61.4122   93.1383   -0.5431 N.3     1  UNL1       -0.2974
     22 H          61.7638   92.2939   -0.9947 H       1  UNL1        0.1232
     23 C          60.1256   90.1390    9.1895 C.3     1  UNL1        0.1202
     24 N          60.4739   90.3349   10.6352 N.am    1  UNL1       -0.2722
     25 C          59.4415   90.8542   11.5916 C.3     1  UNL1        0.1152
     26 C          61.8544   90.0116   11.1247 C.2     1  UNL1        0.2505
     27 O          62.8867   89.4923   10.1683 O.2     1  UNL1       -0.2729
     28 C          62.2026   90.2075   12.5705 C.3     1  UNL1        0.2404
     29 S          63.5311   90.7919   12.9494 S.O2    1  UNL1        0.0176
     30 O          63.5817   89.8968   14.1521 O.2     1  UNL1       -0.1682
     31 O          63.4805   91.6869   11.7468 O.2     1  UNL1       -0.1682
     32 C          64.8596   91.3762   13.3284 C.ar    1  UNL1        0.1062
     33 C          65.5512   90.9185   14.5783 C.ar    1  UNL1        0.0184
     34 C          66.8797   91.5029   14.9572 C.ar    1  UNL1        0.0013
     35 C          67.5166   92.5450   14.0864 C.ar    1  UNL1        0.0001
     36 C          66.8250   93.0027   12.8365 C.ar    1  UNL1        0.0013
     37 C          65.4965   92.4184   12.4575 C.ar    1  UNL1        0.0184
@<TRIPOS>BOND
     1    15    14    1
     2    15    16    1
     3    16    17    1
     4    17    13    1
     5    13     7    1
     6     7     8   ar
     7     8     9   ar
     8     9    10   ar
     9    10     1    1
    10     1     2   ar
    11     2     3   ar
    12     3     4   ar
    13     4     5   ar
    14     5     6   ar
    15     6    23    1
    16    23    24    1
    17    24    25    1
    18    24    26   am
    19    26    27    2
    20    26    28    1
    21    28    29    1
    22    29    30    2
    23    29    31    2
    24    29    32    1
    25    32    33   ar
    26    33    34   ar
    27    34    35   ar
    28    35    36   ar
    29    36    37   ar
    30    10    11   ar
    31    11    12   ar
    32    17    18    1
    33    18    19    1
    34    19    20    1
    35    19    21    1
    36    21    15    1
    37    12     7   ar
    38     6     1   ar
    39    37    32   ar
    40    21    22    1
@<TRIPOS>MOLECULE
*****
 37 40 0 0 0
SMALL
GASTEIGER

@<TRIPOS>ATOM
      1 C          62.9130   82.1490   12.1734 C.ar    1  UNL1       -0.0024
      2 C          62.2586   80.8951   11.6740 C.ar    1  UNL1       -0.0003
      3 C          62.4252   79.6100   12.4296 C.ar    1  UNL1       -0.0000
      4 C          63.2461   79.5790   13.6846 C.ar    1  UNL1       -0.0003
      5 C          63.9005   80.8329   14.1841 C.ar    1  UNL1       -0.0026
      6 C          63.7339   82.1179   13.4285 C.ar    1  UNL1       -0.0023
      7 C          62.4133   86.0042    9.9067 C.ar    1  UNL1       -0.0061
      8 C          61.7399   85.8223   11.2347 C.ar    1  UNL1       -0.0029
      9 C          61.9065   84.5373   11.9903 C.ar    1  UNL1       -0.0003
     10 C          62.7464   83.4341   11.4178 C.ar    1  UNL1       -0.0003
     11 C          63.4197   83.6160   10.0899 C.ar    1  UNL1       -0.0003
     12 C          63.2532   84.9010    9.3343 C.ar    1  UNL1       -0.0029
     13 C          62.2467   87.2892    9.1511 C.3     1  UNL1        0.0992
     14 C          64.0419   91.7556   11.1078 C.3     1  UNL1        0.0186
     15 C          62.9068   90.8038   10.8722 C.3     1  UNL1        0.0702
     16 C          63.1443   89.5224   10.1295 C.3     1  UNL1        0.0882
     17 N          62.0092   88.5706    9.8938 N.3     1  UNL1       -0.2666
     18 C          60.6365   88.9002   10.4009 C.3     1  UNL1        0.0882
     19 C          60.3990   90.1815   11.1436 C.3     1  UNL1        0.0702
     20 C          59.0263   90.5111   11.6508 C.3     1  UNL1        0.0186
     21 N          61.5341   91.1333   11.3793 N.3     1  UNL1       -0.2974
     22 H          61.6140   91.2521   12.3892 H       1  UNL1        0.1232
     23 C          64.3883   83.3719   13.9280 C.3     1  UNL1        0.1202
     24 N          63.5809   84.3942   14.6716 N.am    1  UNL1       -0.2722
     25 C          62.1353   84.1325   14.9746 C.3     1  UNL1        0.1152
     26 C          64.2191   85.6781   15.1123 C.2     1  UNL1        0.2505
     27 O          65.6646   85.9398   14.8093 O.2     1  UNL1       -0.2729
     28 C          63.4117   86.7004   15.8560 C.3     1  UNL1        0.2404
     29 S          63.7706   88.1537   15.7606 S.O2    1  UNL1        0.0176
     30 O          64.1948   87.9555   14.3356 O.2     1  UNL1       -0.1682
     31 O          63.3463   88.3520   17.1856 O.2     1  UNL1       -0.1682
     32 C          64.1295   89.6070   15.6653 C.ar    1  UNL1        0.1062
     33 C          63.6310   90.5721   16.6997 C.ar    1  UNL1        0.0184
     34 C          63.9899   92.0254   16.6043 C.ar    1  UNL1        0.0013
     35 C          64.8473   92.5136   15.4746 C.ar    1  UNL1        0.0001
     36 C          65.3458   91.5485   14.4401 C.ar    1  UNL1        0.0013
     37 C          64.9869   90.0952   14.5354 C.ar    1  UNL1        0.0184
@<TRIPOS>BOND
     1    15    14    1
     2    15    16    1
     3    16    17    1
     4    17    13    1
     5    13     7    1
     6     7     8   ar
     7     8     9   ar
     8     9    10   ar
     9    10     1    1
    10     1     2   ar
    11     2     3   ar
    12     3     4   ar
    13     4     5   ar
    14     5     6   ar
    15     6    23    1
    16    23    24    1
    17    24    25    1
    18    24    26   am
    19    26    27    2
    20    26    28    1
    21    28    29    1
    22    29    30    2
    23    29    31    2
    24    29    32    1
    25    32    33   ar
    26    33    34   ar
    27    34    35   ar
    28    35    36   ar
    29    36    37   ar
    30    10    11   ar
    31    11    12   ar
    32    17    18    1
    33    18    19    1
    34    19    20    1
    35    19    21    1
    36    21    15    1
    37    12     7   ar
    38     6     1   ar
    39    37    32   ar
    40    21    22    1
