@<TRIPOS>MOLECULE
*****
 35 38 0 0 0
SMALL
GASTEIGER

@<TRIPOS>ATOM
      1 C          62.5237   83.5596   13.4935 C.2     1  UNL1        0.0733
      2 C          62.7132   83.7624   14.9676 C.2     1  UNL1        0.1887
      3 O          62.4716   82.7385   16.0368 O.2     1  UNL1       -0.5020
      4 C          63.1867   85.1691   15.1847 C.2     1  UNL1        0.2869
      5 O          63.5017   85.7987   16.5092 O.2     1  UNL1       -0.2662
      6 N          63.2898   85.8355   13.8449 N.am    1  UNL1       -0.2463
      7 C          62.8801   84.8408   12.7996 C.3     1  UNL1        0.1338
      8 H          62.1745   81.8805   15.8052 H       1  UNL1        0.2924
      9 C          63.7261   87.2487   13.5943 C.ar    1  UNL1        0.0548
     10 C          63.2833   87.9610   12.3508 C.ar    1  UNL1        0.0149
     11 C          63.7196   89.3741   12.1003 C.ar    1  UNL1        0.0013
     12 C          64.5988   90.0748   13.0933 C.ar    1  UNL1        0.0006
     13 C          65.0416   89.3625   14.3368 C.ar    1  UNL1        0.0013
     14 C          64.6053   87.9494   14.5873 C.ar    1  UNL1        0.0149
     15 C          65.0351   91.4880   12.8427 C.ar    1  UNL1        0.0070
     16 C          64.8261   92.2638   11.5760 C.ar    1  UNL1        0.0075
     17 C          65.4188   93.6287   11.7652 C.ar    1  UNL1        0.0355
     18 S          65.9941   93.6964   13.1489 S.2     1  UNL1       -0.0859
     19 C          65.7570   92.3734   13.8148 C.ar    1  UNL1        0.0354
     20 C          62.8347   85.0844   11.3203 C.ar    1  UNL1        0.0344
     21 C          63.8035   84.3834   10.4146 C.ar    1  UNL1        0.0007
     22 C          63.7580   84.6270    8.9353 C.ar    1  UNL1       -0.0001
     23 C          62.7439   85.5717    8.3614 C.ar    1  UNL1        0.0031
     24 C          61.7752   86.2727    9.2671 C.ar    1  UNL1        0.0366
     25 C          61.8206   86.0291   10.7464 C.ar    1  UNL1        0.1365
     26 O          60.8519   86.7301   11.6520 O.3     1  UNL1       -0.4730
     27 C          60.0423   87.8826   11.1361 C.3     1  UNL1        0.2370
     28 C          59.5560   88.9406   12.0819 C.3     1  UNL1        0.1847
     29 O          58.6158   88.5784   13.1932 O.3     1  UNL1       -0.3784
     30 H          57.7676   88.2929   12.8190 H       1  UNL1        0.2106
     31 C          62.0593   82.2971   12.8297 C.2     1  UNL1        0.1736
     32 O          61.7668   81.9602   11.5555 O.2     1  UNL1       -0.2915
     33 C          60.4554   80.7416   14.1555 C.3     1  UNL1        0.0081
     34 C          61.8300   81.0605   13.6472 C.3     1  UNL1        0.0618
     35 C          62.9756   80.1427   13.9565 C.3     1  UNL1        0.0081
@<TRIPOS>BOND
     1    33    34    1
     2    34    35    1
     3    34    31    1
     4    31    32    2
     5    31     1    1
     6     1     2    2
     7     2     3    1
     8     2     4    1
     9     4     5    2
    10     4     6   am
    11     6     9    1
    12     9    10   ar
    13    10    11   ar
    14    11    12   ar
    15    12    15    1
    16    15    16   ar
    17    16    17   ar
    18    17    18   ar
    19    18    19   ar
    20    12    13   ar
    21    13    14   ar
    22     6     7    1
    23     7    20    1
    24    20    21   ar
    25    21    22   ar
    26    22    23   ar
    27    23    24   ar
    28    24    25   ar
    29    25    26    1
    30    26    27    1
    31    27    28    1
    32    28    29    1
    33     7     1    1
    34    25    20   ar
    35    14     9   ar
    36    19    15   ar
    37     3     8    1
    38    29    30    1
@<TRIPOS>MOLECULE
*****
 35 38 0 0 0
SMALL
GASTEIGER

@<TRIPOS>ATOM
      1 C          63.2266   88.6846   12.7929 C.2     1  UNL1        0.0733
      2 C          64.1074   88.2921   13.9420 C.2     1  UNL1        0.1887
      3 O          64.7406   89.2289   14.9276 O.2     1  UNL1       -0.5020
      4 C          64.2439   86.7984   13.9322 C.2     1  UNL1        0.2869
      5 O          65.0374   85.9792   14.9064 O.2     1  UNL1       -0.2662
      6 N          63.4474   86.2677   12.7772 N.am    1  UNL1       -0.2463
      7 C          62.8187   87.4334   12.0731 C.3     1  UNL1        0.1338
      8 H          64.5982   90.1521   14.8546 H       1  UNL1        0.2924
      9 C          63.3047   84.8245   12.3936 C.ar    1  UNL1        0.0548
     10 C          63.8409   84.3414   11.0787 C.ar    1  UNL1        0.0149
     11 C          63.6982   82.8983   10.6952 C.ar    1  UNL1        0.0013
     12 C          63.0193   81.9384   11.6266 C.ar    1  UNL1        0.0006
     13 C          62.4831   82.4215   12.9415 C.ar    1  UNL1        0.0013
     14 C          62.6258   83.8646   13.3250 C.ar    1  UNL1        0.0149
     15 C          62.8766   80.4952   11.2430 C.ar    1  UNL1        0.0070
     16 C          62.9841   79.9371    9.8549 C.ar    1  UNL1        0.0075
     17 C          62.7754   78.4538    9.9341 C.ar    1  UNL1        0.0355
     18 S          62.5388   78.0952   11.3714 S.2     1  UNL1       -0.0859
     19 C          62.6014   79.3569   12.1803 C.ar    1  UNL1        0.0354
     20 C          61.9369   87.3608   10.8618 C.ar    1  UNL1        0.0344
     21 C          62.4785   86.8213    9.5712 C.ar    1  UNL1        0.0007
     22 C          61.5968   86.7487    8.3599 C.ar    1  UNL1       -0.0001
     23 C          60.1734   87.2155    8.4392 C.ar    1  UNL1        0.0031
     24 C          59.6319   87.7549    9.7298 C.ar    1  UNL1        0.0366
     25 C          60.5137   87.8276   10.9411 C.ar    1  UNL1        0.1365
     26 O          59.9720   88.3670   12.2317 O.3     1  UNL1       -0.4730
     27 C          58.9442   89.4593   12.2156 C.3     1  UNL1        0.2370
     28 C          59.2286   90.7463   11.4994 C.3     1  UNL1        0.1847
     29 O          58.2319   91.8664   11.5454 O.3     1  UNL1       -0.3784
     30 H          57.4228   91.5984   11.0824 H       1  UNL1        0.2106
     31 C          62.8243   90.0828   12.4279 C.2     1  UNL1        0.1736
     32 O          61.9937   90.9937   12.9783 O.2     1  UNL1       -0.2915
     33 C          64.6056   91.6148   11.3188 C.3     1  UNL1        0.0081
     34 C          63.3978   90.7328   11.2038 C.3     1  UNL1        0.0618
     35 C          62.7634   90.5009    9.8643 C.3     1  UNL1        0.0081
@<TRIPOS>BOND
     1    33    34    1
     2    34    35    1
     3    34    31    1
     4    31    32    2
     5    31     1    1
     6     1     2    2
     7     2     3    1
     8     2     4    1
     9     4     5    2
    10     4     6   am
    11     6     9    1
    12     9    10   ar
    13    10    11   ar
    14    11    12   ar
    15    12    15    1
    16    15    16   ar
    17    16    17   ar
    18    17    18   ar
    19    18    19   ar
    20    12    13   ar
    21    13    14   ar
    22     6     7    1
    23     7    20    1
    24    20    21   ar
    25    21    22   ar
    26    22    23   ar
    27    23    24   ar
    28    24    25   ar
    29    25    26    1
    30    26    27    1
    31    27    28    1
    32    28    29    1
    33     7     1    1
    34    25    20   ar
    35    14     9   ar
    36    19    15   ar
    37     3     8    1
    38    29    30    1
@<TRIPOS>MOLECULE
*****
 35 38 0 0 0
SMALL
GASTEIGER

@<TRIPOS>ATOM
      1 C          62.5037   83.7318   13.6108 C.2     1  UNL1        0.0733
      2 C          62.8976   83.8339   15.0546 C.2     1  UNL1        0.1887
      3 O          62.7659   82.7502   16.0833 O.2     1  UNL1       -0.5020
      4 C          63.4462   85.2102   15.2891 C.2     1  UNL1        0.2869
      5 O          63.9594   85.7442   16.5935 O.2     1  UNL1       -0.2662
      6 N          63.3914   85.9585   13.9903 N.am    1  UNL1       -0.2463
      7 C          62.8089   85.0448   12.9531 C.3     1  UNL1        0.1338
      8 H          62.4097   81.9174   15.8434 H       1  UNL1        0.2924
      9 C          63.8403   87.3725   13.7678 C.ar    1  UNL1        0.0548
     10 C          64.7581   88.0319   14.7540 C.ar    1  UNL1        0.0149
     11 C          65.2070   89.4458   14.5315 C.ar    1  UNL1        0.0013
     12 C          64.7380   90.2001   13.3227 C.ar    1  UNL1        0.0006
     13 C          63.8201   89.5406   12.3365 C.ar    1  UNL1        0.0013
     14 C          63.3713   88.1268   12.5591 C.ar    1  UNL1        0.0149
     15 C          65.1869   91.6140   13.1002 C.ar    1  UNL1        0.0070
     16 C          65.8114   92.5126   14.1262 C.ar    1  UNL1        0.0075
     17 C          66.1006   93.8315   13.4728 C.ar    1  UNL1        0.0355
     18 S          65.6547   93.7480   12.0430 S.2     1  UNL1       -0.0859
     19 C          65.0900   92.3776   11.8128 C.ar    1  UNL1        0.0354
     20 C          62.5731   85.3845   11.5112 C.ar    1  UNL1        0.0344
     21 C          61.5406   86.4079   11.1410 C.ar    1  UNL1        0.0007
     22 C          61.3048   86.7476    9.6991 C.ar    1  UNL1       -0.0001
     23 C          62.1012   86.0640    8.6275 C.ar    1  UNL1        0.0031
     24 C          63.1336   85.0407    8.9977 C.ar    1  UNL1        0.0366
     25 C          63.3695   84.7010   10.4396 C.ar    1  UNL1        0.1365
     26 O          64.4019   83.6777   10.8098 O.3     1  UNL1       -0.4730
     27 C          64.5052   82.4005   10.0301 C.3     1  UNL1        0.2370
     28 C          64.0072   81.1164   10.6246 C.3     1  UNL1        0.1847
     29 O          62.8860   80.3697    9.9649 O.3     1  UNL1       -0.3784
     30 H          62.0734   80.8970   10.0139 H       1  UNL1        0.2106
     31 C          61.9091   82.5278   12.9422 C.2     1  UNL1        0.1736
     32 O          61.3995   82.2930   11.7143 O.2     1  UNL1       -0.2915
     33 C          60.4600   80.7701   14.1913 C.3     1  UNL1        0.0081
     34 C          61.7961   81.2332   13.6912 C.3     1  UNL1        0.0618
     35 C          63.0195   80.4015   13.9402 C.3     1  UNL1        0.0081
@<TRIPOS>BOND
     1    33    34    1
     2    34    35    1
     3    34    31    1
     4    31    32    2
     5    31     1    1
     6     1     2    2
     7     2     3    1
     8     2     4    1
     9     4     5    2
    10     4     6   am
    11     6     9    1
    12     9    10   ar
    13    10    11   ar
    14    11    12   ar
    15    12    15    1
    16    15    16   ar
    17    16    17   ar
    18    17    18   ar
    19    18    19   ar
    20    12    13   ar
    21    13    14   ar
    22     6     7    1
    23     7    20    1
    24    20    21   ar
    25    21    22   ar
    26    22    23   ar
    27    23    24   ar
    28    24    25   ar
    29    25    26    1
    30    26    27    1
    31    27    28    1
    32    28    29    1
    33     7     1    1
    34    25    20   ar
    35    14     9   ar
    36    19    15   ar
    37     3     8    1
    38    29    30    1
@<TRIPOS>MOLECULE
*****
 35 38 0 0 0
SMALL
GASTEIGER

@<TRIPOS>ATOM
      1 C          63.4823   89.4662   12.3970 C.2     1  UNL1        0.0733
      2 C          64.3125   89.3403   13.6401 C.2     1  UNL1        0.1887
      3 O          65.0692   90.4481   14.3109 O.2     1  UNL1       -0.5020
      4 C          64.2529   87.9120   14.0945 C.2     1  UNL1        0.2869
      5 O          64.9397   87.3408   15.2995 O.2     1  UNL1       -0.2662
      6 N          63.3860   87.1552   13.1323 N.am    1  UNL1       -0.2463
      7 C          62.9098   88.1157   12.0833 C.3     1  UNL1        0.1338
      8 H          65.0479   91.3138   13.9529 H       1  UNL1        0.2924
      9 C          63.0537   85.6943   13.2062 C.ar    1  UNL1        0.0548
     10 C          63.0186   84.8688   11.9543 C.ar    1  UNL1        0.0149
     11 C          62.6863   83.4080   12.0283 C.ar    1  UNL1        0.0013
     12 C          62.3892   82.7726   13.3542 C.ar    1  UNL1        0.0006
     13 C          62.4243   83.5981   14.6061 C.ar    1  UNL1        0.0013
     14 C          62.7566   85.0589   14.5321 C.ar    1  UNL1        0.0149
     15 C          62.0569   81.3117   13.4282 C.ar    1  UNL1        0.0070
     16 C          62.8020   80.2024   12.7466 C.ar    1  UNL1        0.0075
     17 C          62.1268   78.9088   13.0938 C.ar    1  UNL1        0.0355
     18 S          60.9644   79.2185   13.9900 S.2     1  UNL1       -0.0859
     19 C          60.9213   80.7036   14.1966 C.ar    1  UNL1        0.0354
     20 C          62.0176   87.7841   10.9239 C.ar    1  UNL1        0.0344
     21 C          62.6126   87.3067    9.6323 C.ar    1  UNL1        0.0007
     22 C          61.7204   86.9751    8.4730 C.ar    1  UNL1       -0.0001
     23 C          60.2333   87.1208    8.6052 C.ar    1  UNL1        0.0031
     24 C          59.6385   87.5981    9.8968 C.ar    1  UNL1        0.0366
     25 C          60.5306   87.9298   11.0561 C.ar    1  UNL1        0.1365
     26 O          59.9356   88.4071   12.3477 O.3     1  UNL1       -0.4730
     27 C          58.5333   88.9384   12.3764 C.3     1  UNL1        0.2370
     28 C          57.5696   88.4559   13.4199 C.3     1  UNL1        0.1847
     29 O          56.1188   88.2850   13.0793 O.3     1  UNL1       -0.3784
     30 H          55.7279   89.1513   12.8856 H       1  UNL1        0.2106
     31 C          63.2632   90.7221   11.6066 C.2     1  UNL1        0.1736
     32 O          63.9300   91.8910   11.4993 O.2     1  UNL1       -0.2915
     33 C          62.2481   90.6405    9.2165 C.3     1  UNL1        0.0081
     34 C          62.0785   90.8367   10.6938 C.3     1  UNL1        0.0618
     35 C          60.7239   91.1475   11.2585 C.3     1  UNL1        0.0081
@<TRIPOS>BOND
     1    33    34    1
     2    34    35    1
     3    34    31    1
     4    31    32    2
     5    31     1    1
     6     1     2    2
     7     2     3    1
     8     2     4    1
     9     4     5    2
    10     4     6   am
    11     6     9    1
    12     9    10   ar
    13    10    11   ar
    14    11    12   ar
    15    12    15    1
    16    15    16   ar
    17    16    17   ar
    18    17    18   ar
    19    18    19   ar
    20    12    13   ar
    21    13    14   ar
    22     6     7    1
    23     7    20    1
    24    20    21   ar
    25    21    22   ar
    26    22    23   ar
    27    23    24   ar
    28    24    25   ar
    29    25    26    1
    30    26    27    1
    31    27    28    1
    32    28    29    1
    33     7     1    1
    34    25    20   ar
    35    14     9   ar
    36    19    15   ar
    37     3     8    1
    38    29    30    1
@<TRIPOS>MOLECULE
*****
 35 38 0 0 0
SMALL
GASTEIGER

@<TRIPOS>ATOM
      1 C          62.1825   88.8630   11.2996 C.2     1  UNL1        0.0733
      2 C          62.2188   89.9959   10.3171 C.2     1  UNL1        0.1887
      3 O          61.3677   90.1254    9.0888 O.2     1  UNL1       -0.5020
      4 C          63.2557   90.9766   10.7786 C.2     1  UNL1        0.2869
      5 O          63.6236   92.2589   10.0928 O.2     1  UNL1       -0.2662
      6 N          63.8603   90.4498   12.0463 N.am    1  UNL1       -0.2463
      7 C          63.1970   89.1436   12.3683 C.3     1  UNL1        0.1338
      8 H          60.7430   89.4591    8.8793 H       1  UNL1        0.2924
      9 C          64.9388   91.1129   12.8508 C.ar    1  UNL1        0.0548
     10 C          65.2516   92.5638   12.6340 C.ar    1  UNL1        0.0149
     11 C          66.3301   93.2268   13.4384 C.ar    1  UNL1        0.0013
     12 C          67.0958   92.4390   14.4598 C.ar    1  UNL1        0.0006
     13 C          66.7829   90.9882   14.6766 C.ar    1  UNL1        0.0013
     14 C          65.7044   90.3251   13.8722 C.ar    1  UNL1        0.0149
     15 C          68.1743   93.1021   15.2643 C.ar    1  UNL1        0.0070
     16 C          69.2619   92.4040   16.0256 C.ar    1  UNL1        0.0075
     17 C          70.1144   93.4501   16.6805 C.ar    1  UNL1        0.0355
     18 S          69.5535   94.7949   16.3239 S.2     1  UNL1       -0.0859
     19 C          68.3545   94.5798   15.4487 C.ar    1  UNL1        0.0354
     20 C          63.4956   88.2710   13.5513 C.ar    1  UNL1        0.0344
     21 C          64.0164   86.8796   13.3444 C.ar    1  UNL1        0.0007
     22 C          64.3151   86.0070   14.5274 C.ar    1  UNL1       -0.0001
     23 C          64.0930   86.5258   15.9172 C.ar    1  UNL1        0.0031
     24 C          63.5723   87.9172   16.1240 C.ar    1  UNL1        0.0366
     25 C          63.2736   88.7897   14.9410 C.ar    1  UNL1        0.1365
     26 O          62.7528   90.1812   15.1479 O.3     1  UNL1       -0.4730
     27 C          63.0745   90.9223   16.4117 C.3     1  UNL1        0.2370
     28 C          64.2737   91.8217   16.4692 C.3     1  UNL1        0.1847
     29 O          64.2080   93.1114   17.2322 O.3     1  UNL1       -0.3784
     30 H          63.5770   93.7097   16.8023 H       1  UNL1        0.2106
     31 C          61.2886   87.6607   11.2263 C.2     1  UNL1        0.1736
     32 O          60.0641   87.3712   11.7155 O.2     1  UNL1       -0.2915
     33 C          62.0092   85.1646   11.2109 C.3     1  UNL1        0.0081
     34 C          61.7321   86.4412   10.4738 C.3     1  UNL1        0.0618
     35 C          61.8984   86.4983    8.9841 C.3     1  UNL1        0.0081
@<TRIPOS>BOND
     1    33    34    1
     2    34    35    1
     3    34    31    1
     4    31    32    2
     5    31     1    1
     6     1     2    2
     7     2     3    1
     8     2     4    1
     9     4     5    2
    10     4     6   am
    11     6     9    1
    12     9    10   ar
    13    10    11   ar
    14    11    12   ar
    15    12    15    1
    16    15    16   ar
    17    16    17   ar
    18    17    18   ar
    19    18    19   ar
    20    12    13   ar
    21    13    14   ar
    22     6     7    1
    23     7    20    1
    24    20    21   ar
    25    21    22   ar
    26    22    23   ar
    27    23    24   ar
    28    24    25   ar
    29    25    26    1
    30    26    27    1
    31    27    28    1
    32    28    29    1
    33     7     1    1
    34    25    20   ar
    35    14     9   ar
    36    19    15   ar
    37     3     8    1
    38    29    30    1
@<TRIPOS>MOLECULE
*****
 35 38 0 0 0
SMALL
GASTEIGER

@<TRIPOS>ATOM
      1 C          61.9168   88.4844   10.8864 C.2     1  UNL1        0.0733
      2 C          61.8507   89.6980   10.0072 C.2     1  UNL1        0.1887
      3 O          60.9524   89.8785    8.8195 O.2     1  UNL1       -0.5020
      4 C          62.8405   90.6994   10.5243 C.2     1  UNL1        0.2869
      5 O          63.1059   92.0571    9.9444 O.2     1  UNL1       -0.2662
      6 N          63.5184   90.1047   11.7230 N.am    1  UNL1       -0.2463
      7 C          62.9475   88.7358   11.9468 C.3     1  UNL1        0.1338
      8 H          60.3630   89.1943    8.5697 H       1  UNL1        0.2924
      9 C          64.5807   90.7634   12.5523 C.ar    1  UNL1        0.0548
     10 C          65.5974   91.6528   11.9002 C.ar    1  UNL1        0.0149
     11 C          66.6597   92.3114   12.7295 C.ar    1  UNL1        0.0013
     12 C          66.7052   92.0807   14.2109 C.ar    1  UNL1        0.0006
     13 C          65.6885   91.1913   14.8630 C.ar    1  UNL1        0.0013
     14 C          64.6263   90.5327   14.0337 C.ar    1  UNL1        0.0149
     15 C          67.7675   92.7394   15.0402 C.ar    1  UNL1        0.0070
     16 C          68.8089   92.0363   15.8594 C.ar    1  UNL1        0.0075
     17 C          69.6600   93.0791   16.5214 C.ar    1  UNL1        0.0355
     18 S          69.1445   94.4268   16.1113 S.2     1  UNL1       -0.0859
     19 C          67.9749   94.2168   15.1959 C.ar    1  UNL1        0.0354
     20 C          63.3386   87.7852   13.0391 C.ar    1  UNL1        0.0344
     21 C          63.5372   88.2904   14.4375 C.ar    1  UNL1        0.0007
     22 C          63.9283   87.3397   15.5299 C.ar    1  UNL1       -0.0001
     23 C          64.1209   85.8839   15.2240 C.ar    1  UNL1        0.0031
     24 C          63.9223   85.3788   13.8256 C.ar    1  UNL1        0.0366
     25 C          63.5312   86.3294   12.7333 C.ar    1  UNL1        0.1365
     26 O          63.3326   85.8242   11.3349 O.3     1  UNL1       -0.4730
     27 C          63.1094   84.3612   11.0906 C.3     1  UNL1        0.2370
     28 C          64.2073   83.5222   10.5068 C.3     1  UNL1        0.1847
     29 O          65.0726   82.6886   11.4047 O.3     1  UNL1       -0.3784
     30 H          65.5987   83.2691   11.9768 H       1  UNL1        0.2106
     31 C          61.0963   87.2382   10.7322 C.2     1  UNL1        0.1736
     32 O          60.5471   86.3634   11.6015 O.2     1  UNL1       -0.2915
     33 C          61.7781   86.1027    8.4972 C.3     1  UNL1        0.0081
     34 C          60.7344   86.7431    9.3633 C.3     1  UNL1        0.0618
     35 C          59.3285   86.8884    8.8606 C.3     1  UNL1        0.0081
@<TRIPOS>BOND
     1    33    34    1
     2    34    35    1
     3    34    31    1
     4    31    32    2
     5    31     1    1
     6     1     2    2
     7     2     3    1
     8     2     4    1
     9     4     5    2
    10     4     6   am
    11     6     9    1
    12     9    10   ar
    13    10    11   ar
    14    11    12   ar
    15    12    15    1
    16    15    16   ar
    17    16    17   ar
    18    17    18   ar
    19    18    19   ar
    20    12    13   ar
    21    13    14   ar
    22     6     7    1
    23     7    20    1
    24    20    21   ar
    25    21    22   ar
    26    22    23   ar
    27    23    24   ar
    28    24    25   ar
    29    25    26    1
    30    26    27    1
    31    27    28    1
    32    28    29    1
    33     7     1    1
    34    25    20   ar
    35    14     9   ar
    36    19    15   ar
    37     3     8    1
    38    29    30    1
