@<TRIPOS>MOLECULE
*****
 35 38 0 0 0
SMALL
GASTEIGER

@<TRIPOS>ATOM
      1 C          60.7336   86.8840    9.1888 C.ar    1  UNL1        0.0536
      2 C          59.9989   86.2426    8.0491 C.ar    1  UNL1        0.0045
      3 C          59.1809   87.0846    7.1154 C.ar    1  UNL1        0.0001
      4 C          59.0974   88.5680    7.3213 C.ar    1  UNL1        0.0000
      5 C          59.8321   89.2095    8.4610 C.ar    1  UNL1        0.0001
      6 C          60.6502   88.3675    9.3947 C.ar    1  UNL1        0.0044
      7 C          61.3848   89.0089   10.5344 C.ar    1  UNL1        0.0001
      8 C          60.6813   89.2559   11.8360 C.ar    1  UNL1       -0.0003
      9 C          61.4160   89.8974   12.9756 C.ar    1  UNL1       -0.0029
     10 C          62.8541   90.2919   12.8137 C.ar    1  UNL1       -0.0061
     11 C          63.5575   90.0450   11.5121 C.ar    1  UNL1       -0.0029
     12 C          62.8229   89.4035   10.3724 C.ar    1  UNL1       -0.0003
     13 C          63.5888   90.9334   13.9533 C.3     1  UNL1        0.0992
     14 N          64.8755   91.6618   13.7009 N.3     1  UNL1       -0.2666
     15 C          65.9738   91.6199   14.7218 C.3     1  UNL1        0.0882
     16 C          67.2605   92.3484   14.4694 C.3     1  UNL1        0.0702
     17 C          68.3588   92.3065   15.4902 C.3     1  UNL1        0.0186
     18 N          67.4490   93.1187   13.1962 N.3     1  UNL1       -0.2974
     19 C          66.3507   93.1606   12.1754 C.3     1  UNL1        0.0702
     20 C          66.5392   93.9309   10.9022 C.3     1  UNL1        0.0186
     21 C          65.0640   92.4321   12.4278 C.3     1  UNL1        0.0882
     22 H          68.2674   92.7248   12.7321 H       1  UNL1        0.1232
     23 N          62.7786   85.3407    9.6199 N.am    1  UNL1       -0.2757
     24 C          61.5516   86.0420   10.1224 C.2     1  UNL1        0.2490
     25 O          61.1426   85.9013   11.5588 O.2     1  UNL1       -0.2699
     26 C          62.7024   84.4928    7.1654 C.3     1  UNL1        0.0233
     27 C          63.1876   85.4815    8.1836 C.3     1  UNL1        0.0938
     28 C          63.5967   84.4987   10.5537 C.3     1  UNL1        0.0984
     29 C          63.4392   83.0070   10.5513 C.3     1  UNL1        0.0478
     30 C          62.9632   82.3011   11.7863 C.ar    1  UNL1       -0.0205
     31 C          62.8121   80.8088   11.7860 C.ar    1  UNL1       -0.0042
     32 C          62.3361   80.1029   13.0209 C.ar    1  UNL1       -0.0003
     33 C          62.0112   80.8894   14.2562 C.ar    1  UNL1       -0.0000
     34 C          62.1623   82.3817   14.2565 C.ar    1  UNL1       -0.0003
     35 C          62.6383   83.0876   13.0215 C.ar    1  UNL1       -0.0042
@<TRIPOS>BOND
     1    26    27    1
     2    27    23    1
     3    23    28    1
     4    28    29    1
     5    29    30    1
     6    30    31   ar
     7    31    32   ar
     8    32    33   ar
     9    33    34   ar
    10    34    35   ar
    11    23    24   am
    12    24    25    2
    13    24     1    1
    14     1     2   ar
    15     2     3   ar
    16     3     4   ar
    17     4     5   ar
    18     5     6   ar
    19     6     7    1
    20     7     8   ar
    21     8     9   ar
    22     9    10   ar
    23    10    13    1
    24    13    14    1
    25    14    15    1
    26    15    16    1
    27    16    17    1
    28    16    18    1
    29    18    19    1
    30    19    20    1
    31    19    21    1
    32    10    11   ar
    33    11    12   ar
    34    35    30   ar
    35     6     1   ar
    36    12     7   ar
    37    21    14    1
    38    18    22    1
@<TRIPOS>MOLECULE
*****
 35 38 0 0 0
SMALL
GASTEIGER

@<TRIPOS>ATOM
      1 C          62.8270   84.3059   12.0684 C.ar    1  UNL1        0.0536
      2 C          62.7906   82.8432   11.7384 C.ar    1  UNL1        0.0045
      3 C          63.6673   81.8833   12.4869 C.ar    1  UNL1        0.0001
      4 C          64.5803   82.3863   13.5655 C.ar    1  UNL1        0.0000
      5 C          64.6167   83.8492   13.8955 C.ar    1  UNL1        0.0001
      6 C          63.7401   84.8089   13.1470 C.ar    1  UNL1        0.0044
      7 C          63.7765   86.2717   13.4770 C.ar    1  UNL1        0.0001
      8 C          63.4180   87.2856   12.4314 C.ar    1  UNL1       -0.0003
      9 C          63.4544   88.7484   12.7615 C.ar    1  UNL1       -0.0029
     10 C          63.8493   89.1972   14.1372 C.ar    1  UNL1       -0.0061
     11 C          64.2079   88.1833   15.1828 C.ar    1  UNL1       -0.0029
     12 C          64.1715   86.7205   14.8528 C.ar    1  UNL1       -0.0003
     13 C          63.8858   90.6601   14.4673 C.3     1  UNL1        0.0992
     14 N          65.0195   91.5114   13.9775 N.3     1  UNL1       -0.2666
     15 C          66.1914   91.7872   14.8723 C.3     1  UNL1        0.0882
     16 C          67.3250   92.6386   14.3825 C.3     1  UNL1        0.0702
     17 C          68.4969   92.9143   15.2773 C.3     1  UNL1        0.0186
     18 N          67.2868   93.2142   12.9978 N.3     1  UNL1       -0.2974
     19 C          66.1150   92.9384   12.1030 C.3     1  UNL1        0.0702
     20 C          66.0768   93.5140   10.7184 C.3     1  UNL1        0.0186
     21 C          64.9813   92.0870   12.5929 C.3     1  UNL1        0.0882
     22 H          68.1152   92.8695   12.5127 H       1  UNL1        0.1232
     23 N          62.0778   85.3928    9.8307 N.am    1  UNL1       -0.2757
     24 C          61.9504   85.2657   11.3199 C.2     1  UNL1        0.2490
     25 O          60.9463   86.0983   12.0605 O.2     1  UNL1       -0.2699
     26 C          63.1135   84.5811    7.5906 C.3     1  UNL1        0.0233
     27 C          63.0819   84.5602    9.0901 C.3     1  UNL1        0.0938
     28 C          61.2011   86.3526    9.0822 C.3     1  UNL1        0.0984
     29 C          61.6794   87.7475    8.8076 C.3     1  UNL1        0.0478
     30 C          61.3416   88.8571    9.7588 C.ar    1  UNL1       -0.0205
     31 C          60.0705   88.8029   10.5534 C.ar    1  UNL1       -0.0042
     32 C          59.7328   89.9125   11.5046 C.ar    1  UNL1       -0.0003
     33 C          60.6661   91.0763   11.6611 C.ar    1  UNL1       -0.0000
     34 C          61.9372   91.1305   10.8666 C.ar    1  UNL1       -0.0003
     35 C          62.2749   90.0209    9.9154 C.ar    1  UNL1       -0.0042
@<TRIPOS>BOND
     1    26    27    1
     2    27    23    1
     3    23    28    1
     4    28    29    1
     5    29    30    1
     6    30    31   ar
     7    31    32   ar
     8    32    33   ar
     9    33    34   ar
    10    34    35   ar
    11    23    24   am
    12    24    25    2
    13    24     1    1
    14     1     2   ar
    15     2     3   ar
    16     3     4   ar
    17     4     5   ar
    18     5     6   ar
    19     6     7    1
    20     7     8   ar
    21     8     9   ar
    22     9    10   ar
    23    10    13    1
    24    13    14    1
    25    14    15    1
    26    15    16    1
    27    16    17    1
    28    16    18    1
    29    18    19    1
    30    19    20    1
    31    19    21    1
    32    10    11   ar
    33    11    12   ar
    34    35    30   ar
    35     6     1   ar
    36    12     7   ar
    37    21    14    1
    38    18    22    1
@<TRIPOS>MOLECULE
*****
 35 38 0 0 0
SMALL
GASTEIGER

@<TRIPOS>ATOM
      1 C          60.6004   89.1365    8.8773 C.ar    1  UNL1        0.0536
      2 C          59.7765   90.1832    8.1878 C.ar    1  UNL1        0.0045
      3 C          58.8857   89.8024    7.0425 C.ar    1  UNL1        0.0001
      4 C          58.8190   88.3749    6.5868 C.ar    1  UNL1        0.0000
      5 C          59.6430   87.3281    7.2764 C.ar    1  UNL1        0.0001
      6 C          60.5336   87.7090    8.4216 C.ar    1  UNL1        0.0044
      7 C          61.3576   86.6622    9.1111 C.ar    1  UNL1        0.0001
      8 C          62.3999   85.9031    8.3448 C.ar    1  UNL1       -0.0003
      9 C          63.2238   84.8563    9.0344 C.ar    1  UNL1       -0.0029
     10 C          63.0055   84.5688   10.4903 C.ar    1  UNL1       -0.0061
     11 C          61.9632   85.3280   11.2566 C.ar    1  UNL1       -0.0029
     12 C          61.1393   86.3747   10.5671 C.ar    1  UNL1       -0.0003
     13 C          63.8294   83.5220   11.1799 C.3     1  UNL1        0.0992
     14 N          63.3520   82.9203   12.4683 N.3     1  UNL1       -0.2666
     15 C          63.2932   83.7582   13.7110 C.3     1  UNL1        0.0882
     16 C          62.8158   83.1565   14.9994 C.3     1  UNL1        0.0702
     17 C          62.7569   83.9943   16.2422 C.3     1  UNL1        0.0186
     18 N          62.3971   81.7167   15.0450 N.3     1  UNL1       -0.2974
     19 C          62.4560   80.8788   13.8023 C.3     1  UNL1        0.0702
     20 C          62.0374   79.4392   13.8479 C.3     1  UNL1        0.0186
     21 C          62.9334   81.4806   12.5139 C.3     1  UNL1        0.0882
     22 H          61.4287   81.7017   15.3647 H       1  UNL1        0.1232
     23 N          60.8969   89.8219   11.3657 N.am    1  UNL1       -0.2757
     24 C          61.4911   89.5173   10.0226 C.2     1  UNL1        0.2490
     25 O          62.9761   89.5936    9.8246 O.2     1  UNL1       -0.2699
     26 C          58.8467   88.9399   12.6955 C.3     1  UNL1        0.0233
     27 C          59.4120   89.7456   11.5637 C.3     1  UNL1        0.0938
     28 C          61.7876   90.2028   12.5110 C.3     1  UNL1        0.0984
     29 C          63.2051   89.7139   12.5534 C.3     1  UNL1        0.0478
     30 C          64.3056   90.6403   12.9787 C.ar    1  UNL1       -0.0205
     31 C          65.0153   90.4140   14.2806 C.ar    1  UNL1       -0.0042
     32 C          66.1157   91.3404   14.7058 C.ar    1  UNL1       -0.0003
     33 C          66.5064   92.4931   13.8290 C.ar    1  UNL1       -0.0000
     34 C          65.7967   92.7194   12.5271 C.ar    1  UNL1       -0.0003
     35 C          64.6963   91.7930   12.1019 C.ar    1  UNL1       -0.0042
@<TRIPOS>BOND
     1    26    27    1
     2    27    23    1
     3    23    28    1
     4    28    29    1
     5    29    30    1
     6    30    31   ar
     7    31    32   ar
     8    32    33   ar
     9    33    34   ar
    10    34    35   ar
    11    23    24   am
    12    24    25    2
    13    24     1    1
    14     1     2   ar
    15     2     3   ar
    16     3     4   ar
    17     4     5   ar
    18     5     6   ar
    19     6     7    1
    20     7     8   ar
    21     8     9   ar
    22     9    10   ar
    23    10    13    1
    24    13    14    1
    25    14    15    1
    26    15    16    1
    27    16    17    1
    28    16    18    1
    29    18    19    1
    30    19    20    1
    31    19    21    1
    32    10    11   ar
    33    11    12   ar
    34    35    30   ar
    35     6     1   ar
    36    12     7   ar
    37    21    14    1
    38    18    22    1
@<TRIPOS>MOLECULE
*****
 35 38 0 0 0
SMALL
GASTEIGER

@<TRIPOS>ATOM
      1 C          60.6057   89.1233    8.8916 C.ar    1  UNL1        0.0536
      2 C          59.7805   90.1705    8.2042 C.ar    1  UNL1        0.0045
      3 C          58.8903   89.7909    7.0580 C.ar    1  UNL1        0.0001
      4 C          58.8252   88.3642    6.5995 C.ar    1  UNL1        0.0000
      5 C          59.6504   87.3171    7.2870 C.ar    1  UNL1        0.0001
      6 C          60.5406   87.6966    8.4330 C.ar    1  UNL1        0.0044
      7 C          61.3657   86.6495    9.1205 C.ar    1  UNL1        0.0001
      8 C          61.1565   86.3677   10.5788 C.ar    1  UNL1       -0.0003
      9 C          61.9817   85.3205   11.2663 C.ar    1  UNL1       -0.0029
     10 C          63.0160   84.5552   10.4954 C.ar    1  UNL1       -0.0061
     11 C          63.2252   84.8369    9.0370 C.ar    1  UNL1       -0.0029
     12 C          62.4001   85.8841    8.3495 C.ar    1  UNL1       -0.0003
     13 C          63.8412   83.5079   11.1828 C.3     1  UNL1        0.0992
     14 N          63.3635   82.9015   12.4689 N.3     1  UNL1       -0.2666
     15 C          62.9644   81.4562   12.5139 C.3     1  UNL1        0.0882
     16 C          62.4867   80.8498   13.8000 C.3     1  UNL1        0.0702
     17 C          62.0876   79.4046   13.8450 C.3     1  UNL1        0.0186
     18 N          62.4081   81.6886   15.0411 N.3     1  UNL1       -0.2974
     19 C          62.8072   83.1338   14.9961 C.3     1  UNL1        0.0702
     20 C          62.7286   83.9726   16.2371 C.3     1  UNL1        0.0186
     21 C          63.2849   83.7403   13.7100 C.3     1  UNL1        0.0882
     22 H          63.0033   81.2404   15.7377 H       1  UNL1        0.1232
     23 N          60.9007   89.8100   11.3799 N.am    1  UNL1       -0.2757
     24 C          61.4958   89.5029   10.0376 C.2     1  UNL1        0.2490
     25 O          62.9812   89.5754    9.8415 O.2     1  UNL1       -0.2699
     26 C          58.8488   88.9824   12.7417 C.3     1  UNL1        0.0233
     27 C          59.4154   89.7375   11.5760 C.3     1  UNL1        0.0938
     28 C          61.7910   90.1896   12.5259 C.3     1  UNL1        0.0984
     29 C          63.2095   89.7037   12.5665 C.3     1  UNL1        0.0478
     30 C          64.3082   90.6317   12.9930 C.ar    1  UNL1       -0.0205
     31 C          65.0281   90.3968   14.2878 C.ar    1  UNL1       -0.0042
     32 C          66.1267   91.3248   14.7141 C.ar    1  UNL1       -0.0003
     33 C          66.5055   92.4877   13.8457 C.ar    1  UNL1       -0.0000
     34 C          65.7856   92.7226   12.5509 C.ar    1  UNL1       -0.0003
     35 C          64.6870   91.7946   12.1245 C.ar    1  UNL1       -0.0042
@<TRIPOS>BOND
     1    26    27    1
     2    27    23    1
     3    23    28    1
     4    28    29    1
     5    29    30    1
     6    30    31   ar
     7    31    32   ar
     8    32    33   ar
     9    33    34   ar
    10    34    35   ar
    11    23    24   am
    12    24    25    2
    13    24     1    1
    14     1     2   ar
    15     2     3   ar
    16     3     4   ar
    17     4     5   ar
    18     5     6   ar
    19     6     7    1
    20     7     8   ar
    21     8     9   ar
    22     9    10   ar
    23    10    13    1
    24    13    14    1
    25    14    15    1
    26    15    16    1
    27    16    17    1
    28    16    18    1
    29    18    19    1
    30    19    20    1
    31    19    21    1
    32    10    11   ar
    33    11    12   ar
    34    35    30   ar
    35     6     1   ar
    36    12     7   ar
    37    21    14    1
    38    18    22    1
@<TRIPOS>MOLECULE
*****
 35 38 0 0 0
SMALL
GASTEIGER

@<TRIPOS>ATOM
      1 C          62.8301   84.2987   12.0727 C.ar    1  UNL1        0.0536
      2 C          62.7938   82.8366   11.7399 C.ar    1  UNL1        0.0045
      3 C          63.6712   81.8755   12.4860 C.ar    1  UNL1        0.0001
      4 C          64.5850   82.3766   13.5648 C.ar    1  UNL1        0.0000
      5 C          64.6213   83.8388   13.8976 C.ar    1  UNL1        0.0001
      6 C          63.7439   84.7998   13.1515 C.ar    1  UNL1        0.0044
      7 C          63.7803   86.2620   13.4843 C.ar    1  UNL1        0.0001
      8 C          63.4282   87.2781   12.4387 C.ar    1  UNL1       -0.0003
      9 C          63.4646   88.7403   12.7715 C.ar    1  UNL1       -0.0029
     10 C          63.8531   89.1863   14.1500 C.ar    1  UNL1       -0.0061
     11 C          64.2052   88.1701   15.1957 C.ar    1  UNL1       -0.0029
     12 C          64.1688   86.7080   14.8629 C.ar    1  UNL1       -0.0003
     13 C          63.8895   90.6485   14.4829 C.3     1  UNL1        0.0992
     14 N          65.0157   91.5037   13.9826 N.3     1  UNL1       -0.2666
     15 C          64.9604   92.0833   12.6001 C.3     1  UNL1        0.0882
     16 C          66.0865   92.9385   12.0998 C.3     1  UNL1        0.0702
     17 C          66.0313   93.5181   10.7174 C.3     1  UNL1        0.0186
     18 N          67.2680   93.2142   12.9820 N.3     1  UNL1       -0.2974
     19 C          67.3233   92.6347   14.3644 C.3     1  UNL1        0.0702
     20 C          68.5048   92.9104   15.2464 C.3     1  UNL1        0.0186
     21 C          66.1971   91.7794   14.8647 C.3     1  UNL1        0.0882
     22 H          67.3288   94.2272   13.0847 H       1  UNL1        0.1232
     23 N          62.0809   85.3917    9.8380 N.am    1  UNL1       -0.2757
     24 C          61.9527   85.2597   11.3267 C.2     1  UNL1        0.2490
     25 O          60.9471   86.0887   12.0693 O.2     1  UNL1       -0.2699
     26 C          63.1031   84.5695    7.5955 C.3     1  UNL1        0.0233
     27 C          63.0865   84.5628    9.0954 C.3     1  UNL1        0.0938
     28 C          61.2035   86.3528    9.0920 C.3     1  UNL1        0.0984
     29 C          61.6836   87.7465    8.8147 C.3     1  UNL1        0.0478
     30 C          61.3414   88.8597    9.7602 C.ar    1  UNL1       -0.0205
     31 C          62.2718   90.0263    9.9133 C.ar    1  UNL1       -0.0042
     32 C          61.9296   91.1394   10.8587 C.ar    1  UNL1       -0.0003
     33 C          60.6571   91.0859   11.6511 C.ar    1  UNL1       -0.0000
     34 C          59.7267   89.9193   11.4980 C.ar    1  UNL1       -0.0003
     35 C          60.0689   88.8062   10.5525 C.ar    1  UNL1       -0.0042
@<TRIPOS>BOND
     1    26    27    1
     2    27    23    1
     3    23    28    1
     4    28    29    1
     5    29    30    1
     6    30    31   ar
     7    31    32   ar
     8    32    33   ar
     9    33    34   ar
    10    34    35   ar
    11    23    24   am
    12    24    25    2
    13    24     1    1
    14     1     2   ar
    15     2     3   ar
    16     3     4   ar
    17     4     5   ar
    18     5     6   ar
    19     6     7    1
    20     7     8   ar
    21     8     9   ar
    22     9    10   ar
    23    10    13    1
    24    13    14    1
    25    14    15    1
    26    15    16    1
    27    16    17    1
    28    16    18    1
    29    18    19    1
    30    19    20    1
    31    19    21    1
    32    10    11   ar
    33    11    12   ar
    34    35    30   ar
    35     6     1   ar
    36    12     7   ar
    37    21    14    1
    38    18    22    1
@<TRIPOS>MOLECULE
*****
 35 38 0 0 0
SMALL
GASTEIGER

@<TRIPOS>ATOM
      1 C          63.0181   84.2218   12.7918 C.ar    1  UNL1        0.0536
      2 C          62.9641   82.7299   12.9383 C.ar    1  UNL1        0.0045
      3 C          63.4892   82.0791   14.1836 C.ar    1  UNL1        0.0001
      4 C          64.0681   82.9201   15.2825 C.ar    1  UNL1        0.0000
      5 C          64.1221   84.4120   15.1360 C.ar    1  UNL1        0.0001
      6 C          63.5971   85.0628   13.8907 C.ar    1  UNL1        0.0044
      7 C          63.6511   86.5546   13.7442 C.ar    1  UNL1        0.0001
      8 C          64.2033   87.3978   14.8551 C.ar    1  UNL1       -0.0003
      9 C          64.2572   88.8897   14.7087 C.ar    1  UNL1       -0.0029
     10 C          63.7590   89.5384   13.4513 C.ar    1  UNL1       -0.0061
     11 C          63.2068   88.6952   12.3404 C.ar    1  UNL1       -0.0029
     12 C          63.1528   87.2034   12.4868 C.ar    1  UNL1       -0.0003
     13 C          63.8130   91.0303   13.3048 C.3     1  UNL1        0.0992
     14 N          65.1184   91.7083   13.0116 N.3     1  UNL1       -0.2666
     15 C          65.3650   92.3078   11.6588 C.3     1  UNL1        0.0882
     16 C          66.6705   92.9858   11.3656 C.3     1  UNL1        0.0702
     17 C          66.9171   93.5852   10.0129 C.3     1  UNL1        0.0186
     18 N          67.7294   93.0645   12.4252 N.3     1  UNL1       -0.2974
     19 C          67.4828   92.4650   13.7779 C.3     1  UNL1        0.0702
     20 C          68.5416   92.5437   14.8374 C.3     1  UNL1        0.0186
     21 C          66.1773   91.7870   14.0711 C.3     1  UNL1        0.0882
     22 H          67.9250   94.0545   12.5731 H       1  UNL1        0.1232
     23 N          63.1759   84.6366   10.2320 N.am    1  UNL1       -0.2757
     24 C          62.4931   84.8726   11.5465 C.2     1  UNL1        0.2490
     25 O          61.2853   85.7594   11.6158 O.2     1  UNL1       -0.2699
     26 C          64.2176   82.2675   10.0033 C.3     1  UNL1        0.0233
     27 C          64.3836   83.7497   10.1627 C.3     1  UNL1        0.0938
     28 C          62.6508   85.2874    8.9866 C.3     1  UNL1        0.0984
     29 C          61.1752   85.4921    8.8124 C.3     1  UNL1        0.0478
     30 C          60.6349   86.8658    8.5456 C.ar    1  UNL1       -0.0205
     31 C          61.1670   88.0424    9.3088 C.ar    1  UNL1       -0.0042
     32 C          60.6267   89.4160    9.0420 C.ar    1  UNL1       -0.0003
     33 C          59.5543   89.6130    8.0119 C.ar    1  UNL1       -0.0000
     34 C          59.0221   88.4365    7.2486 C.ar    1  UNL1       -0.0003
     35 C          59.5624   87.0629    7.5155 C.ar    1  UNL1       -0.0042
@<TRIPOS>BOND
     1    26    27    1
     2    27    23    1
     3    23    28    1
     4    28    29    1
     5    29    30    1
     6    30    31   ar
     7    31    32   ar
     8    32    33   ar
     9    33    34   ar
    10    34    35   ar
    11    23    24   am
    12    24    25    2
    13    24     1    1
    14     1     2   ar
    15     2     3   ar
    16     3     4   ar
    17     4     5   ar
    18     5     6   ar
    19     6     7    1
    20     7     8   ar
    21     8     9   ar
    22     9    10   ar
    23    10    13    1
    24    13    14    1
    25    14    15    1
    26    15    16    1
    27    16    17    1
    28    16    18    1
    29    18    19    1
    30    19    20    1
    31    19    21    1
    32    10    11   ar
    33    11    12   ar
    34    35    30   ar
    35     6     1   ar
    36    12     7   ar
    37    21    14    1
    38    18    22    1
@<TRIPOS>MOLECULE
*****
 35 38 0 0 0
SMALL
GASTEIGER

@<TRIPOS>ATOM
      1 C          60.8757   89.0993    9.1245 C.ar    1  UNL1        0.0536
      2 C          60.0549   90.1361    8.4166 C.ar    1  UNL1        0.0045
      3 C          59.0385   89.7192    7.3952 C.ar    1  UNL1        0.0001
      4 C          58.8429   88.2654    7.0818 C.ar    1  UNL1        0.0000
      5 C          59.6638   87.2285    7.7898 C.ar    1  UNL1        0.0001
      6 C          60.6801   87.6455    8.8111 C.ar    1  UNL1        0.0044
      7 C          61.5010   86.6086    9.5190 C.ar    1  UNL1        0.0001
      8 C          61.2756   86.3411   10.9777 C.ar    1  UNL1       -0.0003
      9 C          62.0965   85.3042   11.6856 C.ar    1  UNL1       -0.0029
     10 C          63.1427   84.5349   10.9348 C.ar    1  UNL1       -0.0061
     11 C          63.3680   84.8024    9.4762 C.ar    1  UNL1       -0.0029
     12 C          62.5472   85.8392    8.7683 C.ar    1  UNL1       -0.0003
     13 C          63.9635   83.4980   11.6427 C.3     1  UNL1        0.0992
     14 N          63.4691   82.0848   11.7353 N.3     1  UNL1       -0.2666
     15 C          63.4673   81.2096   10.5170 C.3     1  UNL1        0.0882
     16 C          62.9729   79.7964   10.6096 C.3     1  UNL1        0.0702
     17 C          62.9710   78.9212    9.3914 C.3     1  UNL1        0.0186
     18 N          62.4804   79.2585   11.9204 N.3     1  UNL1       -0.2974
     19 C          62.4823   80.1337   13.1386 C.3     1  UNL1        0.0702
     20 C          61.9898   79.5958   14.4493 C.3     1  UNL1        0.0186
     21 C          62.9767   81.5469   13.0460 C.3     1  UNL1        0.0882
     22 H          63.0567   78.4462   12.1406 H       1  UNL1        0.1232
     23 N          61.4741   89.7514   11.5672 N.am    1  UNL1       -0.2757
     24 C          61.8920   89.5162   10.1459 C.2     1  UNL1        0.2490
     25 O          63.3263   89.6980    9.7459 O.2     1  UNL1       -0.2699
     26 C          59.0565   90.6829   11.7590 C.3     1  UNL1        0.0233
     27 C          60.0400   89.5696   11.9671 C.3     1  UNL1        0.0938
     28 C          62.4906   90.1684   12.5885 C.3     1  UNL1        0.0984
     29 C          63.6267   89.2518   12.9336 C.3     1  UNL1        0.0478
     30 C          63.6030   88.4790   14.2191 C.ar    1  UNL1       -0.0205
     31 C          64.0328   87.0421   14.2383 C.ar    1  UNL1       -0.0042
     32 C          64.0092   86.2694   15.5237 C.ar    1  UNL1       -0.0003
     33 C          63.5557   86.9336   16.7899 C.ar    1  UNL1       -0.0000
     34 C          63.1258   88.3706   16.7706 C.ar    1  UNL1       -0.0003
     35 C          63.1495   89.1433   15.4852 C.ar    1  UNL1       -0.0042
@<TRIPOS>BOND
     1    26    27    1
     2    27    23    1
     3    23    28    1
     4    28    29    1
     5    29    30    1
     6    30    31   ar
     7    31    32   ar
     8    32    33   ar
     9    33    34   ar
    10    34    35   ar
    11    23    24   am
    12    24    25    2
    13    24     1    1
    14     1     2   ar
    15     2     3   ar
    16     3     4   ar
    17     4     5   ar
    18     5     6   ar
    19     6     7    1
    20     7     8   ar
    21     8     9   ar
    22     9    10   ar
    23    10    13    1
    24    13    14    1
    25    14    15    1
    26    15    16    1
    27    16    17    1
    28    16    18    1
    29    18    19    1
    30    19    20    1
    31    19    21    1
    32    10    11   ar
    33    11    12   ar
    34    35    30   ar
    35     6     1   ar
    36    12     7   ar
    37    21    14    1
    38    18    22    1
@<TRIPOS>MOLECULE
*****
 35 38 0 0 0
SMALL
GASTEIGER

@<TRIPOS>ATOM
      1 C          61.2965   86.7470    8.8134 C.ar    1  UNL1        0.0536
      2 C          60.3157   85.9278    8.0281 C.ar    1  UNL1        0.0045
      3 C          58.9816   86.5057    7.6587 C.ar    1  UNL1        0.0001
      4 C          58.6284   87.9029    8.0748 C.ar    1  UNL1        0.0000
      5 C          59.6093   88.7221    8.8602 C.ar    1  UNL1        0.0001
      6 C          60.9432   88.1442    9.2295 C.ar    1  UNL1        0.0044
      7 C          61.9240   88.9634   10.0149 C.ar    1  UNL1        0.0001
      8 C          62.3876   88.4912   11.3610 C.ar    1  UNL1       -0.0003
      9 C          63.3685   89.3105   12.1464 C.ar    1  UNL1       -0.0029
     10 C          63.8856   90.6020   11.5857 C.ar    1  UNL1       -0.0061
     11 C          63.4220   91.0743   10.2396 C.ar    1  UNL1       -0.0029
     12 C          62.4412   90.2551    9.4542 C.ar    1  UNL1       -0.0003
     13 C          64.8665   91.4213   12.3711 C.3     1  UNL1        0.0992
     14 N          65.7338   92.4260   11.6722 N.3     1  UNL1       -0.2666
     15 C          65.5205   93.8923   11.9057 C.3     1  UNL1        0.0882
     16 C          66.3878   94.8970   11.2068 C.3     1  UNL1        0.0702
     17 C          66.1746   96.3633   11.4402 C.3     1  UNL1        0.0186
     18 N          67.4685   94.4353   10.2745 N.3     1  UNL1       -0.2974
     19 C          67.6818   92.9690   10.0411 C.3     1  UNL1        0.0702
     20 C          68.7624   92.5074    9.1089 C.3     1  UNL1        0.0186
     21 C          66.8144   91.9644   10.7400 C.3     1  UNL1        0.0882
     22 H          68.3472   94.8069   10.6353 H       1  UNL1        0.1232
     23 N          62.7874   85.4025   10.4625 N.am    1  UNL1       -0.2757
     24 C          62.6304   86.1691    9.1827 C.2     1  UNL1        0.2490
     25 O          63.8076   86.3577    8.2722 O.2     1  UNL1       -0.2699
     26 C          61.8132   85.1522   12.8578 C.3     1  UNL1        0.0233
     27 C          61.6104   85.2139   11.3729 C.3     1  UNL1        0.0938
     28 C          64.1215   84.8246   10.8317 C.3     1  UNL1        0.0984
     29 C          64.3781   83.3574   10.6548 C.3     1  UNL1        0.0478
     30 C          63.8591   82.3779   11.6654 C.ar    1  UNL1       -0.0205
     31 C          63.0443   81.2004   11.2189 C.ar    1  UNL1       -0.0042
     32 C          62.5252   80.2210   12.2296 C.ar    1  UNL1       -0.0003
     33 C          62.8210   80.4192   13.6867 C.ar    1  UNL1       -0.0000
     34 C          63.6358   81.5967   14.1332 C.ar    1  UNL1       -0.0003
     35 C          64.1548   82.5761   13.1226 C.ar    1  UNL1       -0.0042
@<TRIPOS>BOND
     1    26    27    1
     2    27    23    1
     3    23    28    1
     4    28    29    1
     5    29    30    1
     6    30    31   ar
     7    31    32   ar
     8    32    33   ar
     9    33    34   ar
    10    34    35   ar
    11    23    24   am
    12    24    25    2
    13    24     1    1
    14     1     2   ar
    15     2     3   ar
    16     3     4   ar
    17     4     5   ar
    18     5     6   ar
    19     6     7    1
    20     7     8   ar
    21     8     9   ar
    22     9    10   ar
    23    10    13    1
    24    13    14    1
    25    14    15    1
    26    15    16    1
    27    16    17    1
    28    16    18    1
    29    18    19    1
    30    19    20    1
    31    19    21    1
    32    10    11   ar
    33    11    12   ar
    34    35    30   ar
    35     6     1   ar
    36    12     7   ar
    37    21    14    1
    38    18    22    1
