@<TRIPOS>MOLECULE
*****
 28 30 0 0 0
SMALL
GASTEIGER

@<TRIPOS>ATOM
      1 O          63.4102   91.6650   16.4344 O.2     1  UNL1       -0.2727
      2 C          63.9597   90.7505   15.3800 C.2     1  UNL1        0.2507
      3 N          63.8330   89.2640   15.5363 N.am    1  UNL1       -0.2751
      4 C          63.1569   88.6921   16.7469 C.3     1  UNL1        0.1108
      5 C          63.0302   87.2056   16.9031 C.3     1  UNL1        0.0942
      6 N          63.5797   86.2912   15.8487 N.3     1  UNL1       -0.2660
      7 C          64.2559   86.8631   14.6381 C.3     1  UNL1        0.0942
      8 C          64.3825   88.3495   14.4819 C.3     1  UNL1        0.1108
      9 C          64.6359   91.3225   14.1694 C.3     1  UNL1        0.2140
     10 N          63.9693   91.2386   12.8282 N.ar    1  UNL1       -0.2155
     11 C          64.4689   91.8552   11.5553 C.ar    1  UNL1        0.2037
     12 N          63.4945   91.5211   10.4648 N.ar    1  UNL1       -0.1391
     13 C          62.3927   90.6981   11.0639 C.ar    1  UNL1        0.4880
     14 N          62.6862   90.5235   12.5245 N.ar    1  UNL1       -0.0790
     15 N          61.2060   90.1465   10.3310 N.pl3   1  UNL1        0.1230
     16 O          59.8501   90.7552   10.5335 O.2     1  UNL1        0.0448
     17 O          61.3749   88.9863    9.3954 O.co2   1  UNL1       -0.5734
     18 C          63.4530   84.8047   16.0050 C.3     1  UNL1        0.0992
     19 C          63.3673   83.9275   14.7912 C.ar    1  UNL1       -0.0062
     20 C          62.3198   82.8568   14.7121 C.ar    1  UNL1       -0.0030
     21 C          62.2341   81.9796   13.4982 C.ar    1  UNL1        0.0036
     22 C          63.1959   82.1733   12.3636 C.ar    1  UNL1        0.0714
     23 C          64.2434   83.2440   12.4427 C.ar    1  UNL1        0.0036
     24 C          64.3291   84.1211   13.6565 C.ar    1  UNL1       -0.0030
     25 C          63.1102   81.2962   11.1498 C.3     1  UNL1        0.4186
     26 F          63.0245   80.4190    9.9360 F       1  UNL1       -0.1659
     27 F          62.7096   80.1382   12.0149 F       1  UNL1       -0.1659
     28 F          63.5109   82.4541   10.2847 F       1  UNL1       -0.1659
@<TRIPOS>UNITY_ATOM_ATTR
15 1
charge 1
17 1
charge -1
@<TRIPOS>BOND
     1     1     2    2
     2     2     9    1
     3     9    10    1
     4    10    11   ar
     5    11    12   ar
     6    12    13   ar
     7    13    15    1
     8    15    16    2
     9    15    17    1
    10    13    14   ar
    11     2     3   am
    12     3     4    1
    13     4     5    1
    14     5     6    1
    15     6    18    1
    16    18    19    1
    17    19    20   ar
    18    20    21   ar
    19    21    22   ar
    20    22    25    1
    21    25    26    1
    22    25    27    1
    23    25    28    1
    24    22    23   ar
    25    23    24   ar
    26     6     7    1
    27     7     8    1
    28    14    10   ar
    29     8     3    1
    30    24    19   ar
@<TRIPOS>MOLECULE
*****
 28 30 0 0 0
SMALL
GASTEIGER

@<TRIPOS>ATOM
      1 O          62.4982   90.5065   10.5911 O.2     1  UNL1       -0.2727
      2 C          63.2468   90.3427   11.8806 C.2     1  UNL1        0.2507
      3 N          63.3671   88.9869   12.5110 N.am    1  UNL1       -0.2751
      4 C          62.7388   87.7949   11.8520 C.3     1  UNL1        0.1108
      5 C          62.8591   86.4392   12.4825 C.3     1  UNL1        0.0942
      6 N          63.6077   86.2755   13.7720 N.3     1  UNL1       -0.2660
      7 C          64.2360   87.4674   14.4310 C.3     1  UNL1        0.0942
      8 C          64.1157   88.8232   13.8005 C.3     1  UNL1        0.1108
      9 C          63.8752   91.5347   12.5396 C.3     1  UNL1        0.2140
     10 N          65.2450   91.9850   12.1262 N.ar    1  UNL1       -0.2155
     11 C          66.4251   92.1658   13.0344 C.ar    1  UNL1        0.2037
     12 N          67.5847   92.6261   12.2015 N.ar    1  UNL1       -0.1391
     13 C          67.1211   92.7298   10.7787 C.ar    1  UNL1        0.4880
     14 N          65.6752   92.3336   10.7321 N.ar    1  UNL1       -0.0790
     15 N          67.9568   93.1551    9.6080 N.pl3   1  UNL1        0.1230
     16 O          68.4273   92.1362    8.6127 O.2     1  UNL1        0.0448
     17 O          68.3222   94.5993    9.4323 O.co2   1  UNL1       -0.5734
     18 C          63.7280   84.9197   14.4024 C.3     1  UNL1        0.0992
     19 C          63.4993   83.6868   13.5792 C.ar    1  UNL1       -0.0062
     20 C          64.3104   83.4516   12.3395 C.ar    1  UNL1       -0.0030
     21 C          64.0817   82.2187   11.5163 C.ar    1  UNL1        0.0036
     22 C          63.0420   81.2210   11.9328 C.ar    1  UNL1        0.0714
     23 C          62.2309   81.4562   13.1725 C.ar    1  UNL1        0.0036
     24 C          62.4595   82.6890   13.9957 C.ar    1  UNL1       -0.0030
     25 C          62.8133   79.9881   11.1096 C.3     1  UNL1        0.4186
     26 F          62.5847   78.7552   10.2863 F       1  UNL1       -0.1659
     27 F          62.4418   79.2294   12.3490 F       1  UNL1       -0.1659
     28 F          63.1848   80.7468    9.8701 F       1  UNL1       -0.1659
@<TRIPOS>UNITY_ATOM_ATTR
15 1
charge 1
17 1
charge -1
@<TRIPOS>BOND
     1     1     2    2
     2     2     9    1
     3     9    10    1
     4    10    11   ar
     5    11    12   ar
     6    12    13   ar
     7    13    15    1
     8    15    16    2
     9    15    17    1
    10    13    14   ar
    11     2     3   am
    12     3     4    1
    13     4     5    1
    14     5     6    1
    15     6    18    1
    16    18    19    1
    17    19    20   ar
    18    20    21   ar
    19    21    22   ar
    20    22    25    1
    21    25    26    1
    22    25    27    1
    23    25    28    1
    24    22    23   ar
    25    23    24   ar
    26     6     7    1
    27     7     8    1
    28    14    10   ar
    29     8     3    1
    30    24    19   ar
@<TRIPOS>MOLECULE
*****
 28 30 0 0 0
SMALL
GASTEIGER

@<TRIPOS>ATOM
      1 O          63.5087   91.5692   15.4933 O.2     1  UNL1       -0.2727
      2 C          63.7004   90.5911   14.3723 C.2     1  UNL1        0.2507
      3 N          63.7114   89.1181   14.6558 N.am    1  UNL1       -0.2751
      4 C          63.5307   88.6233   16.0603 C.3     1  UNL1        0.1108
      5 C          63.5417   87.1504   16.3437 C.3     1  UNL1        0.0942
      6 N          63.7335   86.1723   15.2227 N.3     1  UNL1       -0.2660
      7 C          63.9142   86.6671   13.8183 C.3     1  UNL1        0.0942
      8 C          63.9031   88.1400   13.5349 C.3     1  UNL1        0.1108
      9 C          63.8811   91.0859   12.9679 C.3     1  UNL1        0.2140
     10 N          64.9533   92.0882   12.6579 N.ar    1  UNL1       -0.2155
     11 C          66.0521   92.5185   13.5839 C.ar    1  UNL1        0.2037
     12 N          66.8928   93.5323   12.8658 N.ar    1  UNL1       -0.1391
     13 C          66.3135   93.7285   11.4961 C.ar    1  UNL1        0.4880
     14 N          65.1148   92.8359   11.3677 N.ar    1  UNL1       -0.0790
     15 N          66.8403   94.6545   10.4404 N.pl3   1  UNL1        0.1230
     16 O          68.1061   94.3165    9.7100 O.2     1  UNL1        0.0448
     17 O          66.1014   95.9187   10.1149 O.co2   1  UNL1       -0.5734
     18 C          63.7445   84.6993   15.5062 C.3     1  UNL1        0.0992
     19 C          63.5710   83.7184   14.3848 C.ar    1  UNL1       -0.0062
     20 C          62.4303   82.7447   14.4099 C.ar    1  UNL1       -0.0030
     21 C          62.2568   81.7637   13.2884 C.ar    1  UNL1        0.0036
     22 C          63.2239   81.7565   12.1419 C.ar    1  UNL1        0.0714
     23 C          64.3646   82.7303   12.1168 C.ar    1  UNL1        0.0036
     24 C          64.5382   83.7112   13.2382 C.ar    1  UNL1       -0.0030
     25 C          63.0504   80.7756   11.0204 C.3     1  UNL1        0.4186
     26 F          62.8768   79.7946    9.8990 F       1  UNL1       -0.1659
     27 F          63.5636   81.7962   10.0483 F       1  UNL1       -0.1659
     28 F          62.5372   79.7551   11.9926 F       1  UNL1       -0.1659
@<TRIPOS>UNITY_ATOM_ATTR
15 1
charge 1
17 1
charge -1
@<TRIPOS>BOND
     1     1     2    2
     2     2     9    1
     3     9    10    1
     4    10    11   ar
     5    11    12   ar
     6    12    13   ar
     7    13    15    1
     8    15    16    2
     9    15    17    1
    10    13    14   ar
    11     2     3   am
    12     3     4    1
    13     4     5    1
    14     5     6    1
    15     6    18    1
    16    18    19    1
    17    19    20   ar
    18    20    21   ar
    19    21    22   ar
    20    22    25    1
    21    25    26    1
    22    25    27    1
    23    25    28    1
    24    22    23   ar
    25    23    24   ar
    26     6     7    1
    27     7     8    1
    28    14    10   ar
    29     8     3    1
    30    24    19   ar
@<TRIPOS>MOLECULE
*****
 28 30 0 0 0
SMALL
GASTEIGER

@<TRIPOS>ATOM
      1 O          62.6525   85.6468   17.6950 O.2     1  UNL1       -0.2727
      2 C          63.5047   85.9406   16.4961 C.2     1  UNL1        0.2507
      3 N          63.6569   87.3522   16.0119 N.am    1  UNL1       -0.2751
      4 C          62.9570   88.4698   16.7266 C.3     1  UNL1        0.1108
      5 C          63.1093   89.8813   16.2424 C.3     1  UNL1        0.0942
      6 N          63.9615   90.1751   15.0435 N.3     1  UNL1       -0.2660
      7 C          64.6614   89.0575   14.3288 C.3     1  UNL1        0.0942
      8 C          64.5092   87.6460   14.8130 C.3     1  UNL1        0.1108
      9 C          64.2046   84.8229   15.7814 C.3     1  UNL1        0.2140
     10 N          63.4387   83.9346   14.8463 N.ar    1  UNL1       -0.2155
     11 C          63.1400   84.2211   13.4046 C.ar    1  UNL1        0.2037
     12 N          62.3536   83.0674   12.8560 N.ar    1  UNL1       -0.1391
     13 C          62.1664   82.0680   13.9588 C.ar    1  UNL1        0.4880
     14 N          62.8370   82.6040   15.1889 N.ar    1  UNL1       -0.0790
     15 N          61.4368   80.7620   13.8506 N.pl3   1  UNL1        0.1230
     16 O          62.1315   79.5595   13.2836 O.2     1  UNL1        0.0448
     17 O          60.0124   80.6583   14.3092 O.co2   1  UNL1       -0.5734
     18 C          64.1138   91.5867   14.5593 C.3     1  UNL1        0.0992
     19 C          64.9657   91.8805   13.3602 C.ar    1  UNL1       -0.0062
     20 C          66.4422   92.0896   13.5223 C.ar    1  UNL1       -0.0030
     21 C          67.2942   92.3834   12.3232 C.ar    1  UNL1        0.0036
     22 C          66.6696   92.4681   10.9620 C.ar    1  UNL1        0.0714
     23 C          65.1931   92.2591   10.8000 C.ar    1  UNL1        0.0036
     24 C          64.3412   91.9652   11.9990 C.ar    1  UNL1       -0.0030
     25 C          67.5216   92.7620    9.7630 C.3     1  UNL1        0.4186
     26 F          68.3735   93.0558    8.5638 F       1  UNL1       -0.1659
     27 F          68.3943   91.5882   10.0954 F       1  UNL1       -0.1659
     28 F          66.6489   93.9357    9.4305 F       1  UNL1       -0.1659
@<TRIPOS>UNITY_ATOM_ATTR
15 1
charge 1
17 1
charge -1
@<TRIPOS>BOND
     1     1     2    2
     2     2     9    1
     3     9    10    1
     4    10    11   ar
     5    11    12   ar
     6    12    13   ar
     7    13    15    1
     8    15    16    2
     9    15    17    1
    10    13    14   ar
    11     2     3   am
    12     3     4    1
    13     4     5    1
    14     5     6    1
    15     6    18    1
    16    18    19    1
    17    19    20   ar
    18    20    21   ar
    19    21    22   ar
    20    22    25    1
    21    25    26    1
    22    25    27    1
    23    25    28    1
    24    22    23   ar
    25    23    24   ar
    26     6     7    1
    27     7     8    1
    28    14    10   ar
    29     8     3    1
    30    24    19   ar
@<TRIPOS>MOLECULE
*****
 28 30 0 0 0
SMALL
GASTEIGER

@<TRIPOS>ATOM
      1 O          62.3736   85.6604   17.4965 O.2     1  UNL1       -0.2727
      2 C          63.2832   85.9457   16.3385 C.2     1  UNL1        0.2507
      3 N          63.5915   87.3638   15.9586 N.am    1  UNL1       -0.2751
      4 C          62.9901   88.4963   16.7367 C.3     1  UNL1        0.1108
      5 C          63.2984   89.9143   16.3568 C.3     1  UNL1        0.0942
      6 N          64.2080   90.1996   15.1987 N.3     1  UNL1       -0.2660
      7 C          64.8094   89.0670   14.4206 C.3     1  UNL1        0.0942
      8 C          64.5011   87.6491   14.8005 C.3     1  UNL1        0.1108
      9 C          63.8846   84.8131   15.5603 C.3     1  UNL1        0.2140
     10 N          63.3571   84.4764   14.1970 N.ar    1  UNL1       -0.2155
     11 C          62.9617   83.1113   13.7172 C.ar    1  UNL1        0.2037
     12 N          62.4927   83.2368   12.2978 N.ar    1  UNL1       -0.1391
     13 C          62.5982   84.6795   11.9006 C.ar    1  UNL1        0.4880
     14 N          63.1325   85.4455   13.0744 N.ar    1  UNL1       -0.0790
     15 N          62.2336   85.2550   10.5644 N.pl3   1  UNL1        0.1230
     16 O          63.0905   84.9711    9.3664 O.2     1  UNL1        0.0448
     17 O          61.0119   86.1143   10.4259 O.co2   1  UNL1       -0.5734
     18 C          64.5163   91.6177   14.8188 C.3     1  UNL1        0.0992
     19 C          65.3010   91.9069   13.5736 C.ar    1  UNL1       -0.0062
     20 C          64.5965   92.0310   12.2551 C.ar    1  UNL1       -0.0030
     21 C          65.3813   92.3203   11.0099 C.ar    1  UNL1        0.0036
     22 C          66.8703   92.4853   11.0831 C.ar    1  UNL1        0.0714
     23 C          67.5748   92.3611   12.4016 C.ar    1  UNL1        0.0036
     24 C          66.7901   92.0719   13.6468 C.ar    1  UNL1       -0.0030
     25 C          67.6550   92.7745    9.8379 C.3     1  UNL1        0.4186
     26 F          68.4397   93.0637    8.5926 F       1  UNL1       -0.1659
     27 F          67.9312   91.3096    9.6717 F       1  UNL1       -0.1659
     28 F          67.3788   94.2394   10.0041 F       1  UNL1       -0.1659
@<TRIPOS>UNITY_ATOM_ATTR
15 1
charge 1
17 1
charge -1
@<TRIPOS>BOND
     1     1     2    2
     2     2     9    1
     3     9    10    1
     4    10    11   ar
     5    11    12   ar
     6    12    13   ar
     7    13    15    1
     8    15    16    2
     9    15    17    1
    10    13    14   ar
    11     2     3   am
    12     3     4    1
    13     4     5    1
    14     5     6    1
    15     6    18    1
    16    18    19    1
    17    19    20   ar
    18    20    21   ar
    19    21    22   ar
    20    22    25    1
    21    25    26    1
    22    25    27    1
    23    25    28    1
    24    22    23   ar
    25    23    24   ar
    26     6     7    1
    27     7     8    1
    28    14    10   ar
    29     8     3    1
    30    24    19   ar
@<TRIPOS>MOLECULE
*****
 28 30 0 0 0
SMALL
GASTEIGER

@<TRIPOS>ATOM
      1 O          66.5716   90.8859   14.7033 O.2     1  UNL1       -0.2727
      2 C          65.6047   91.5329   13.7564 C.2     1  UNL1        0.2507
      3 N          64.4498   90.7467   13.2103 N.am    1  UNL1       -0.2751
      4 C          64.2618   89.3136   13.6111 C.3     1  UNL1        0.1108
      5 C          63.1070   88.5275   13.0649 C.3     1  UNL1        0.0942
      6 N          62.1402   89.1745   12.1180 N.3     1  UNL1       -0.2660
      7 C          62.3282   90.6077   11.7173 C.3     1  UNL1        0.0942
      8 C          63.4830   91.3938   12.2634 C.3     1  UNL1        0.1108
      9 C          65.7928   92.9661   13.3557 C.3     1  UNL1        0.2140
     10 N          66.4163   93.2993   12.0327 N.ar    1  UNL1       -0.2155
     11 C          67.3570   92.4261   11.2565 C.ar    1  UNL1        0.2037
     12 N          67.7307   93.1514    9.9977 N.ar    1  UNL1       -0.1391
     13 C          67.0207   94.4728    9.9960 C.ar    1  UNL1        0.4880
     14 N          66.2084   94.5642   11.2537 N.ar    1  UNL1       -0.0790
     15 N          67.1079   95.5190    8.9247 N.pl3   1  UNL1        0.1230
     16 O          66.5870   95.2284    7.5484 O.2     1  UNL1        0.0448
     17 O          67.7159   96.8560    9.2296 O.co2   1  UNL1       -0.5734
     18 C          60.9853   88.3883   11.5719 C.3     1  UNL1        0.0992
     19 C          61.1786   87.5043   10.3756 C.ar    1  UNL1       -0.0062
     20 C          62.3523   86.5723   10.3136 C.ar    1  UNL1       -0.0030
     21 C          62.5456   85.6883    9.1173 C.ar    1  UNL1        0.0036
     22 C          61.5653   85.7363    7.9830 C.ar    1  UNL1        0.0714
     23 C          60.3916   86.6683    8.0450 C.ar    1  UNL1        0.0036
     24 C          60.1983   87.5523    9.2413 C.ar    1  UNL1       -0.0030
     25 C          61.7587   84.8523    6.7867 C.3     1  UNL1        0.4186
     26 F          61.9521   83.9682    5.5904 F       1  UNL1       -0.1659
     27 F          60.2798   84.8676    6.5364 F       1  UNL1       -0.1659
     28 F          63.2375   84.8369    7.0371 F       1  UNL1       -0.1659
@<TRIPOS>UNITY_ATOM_ATTR
15 1
charge 1
17 1
charge -1
@<TRIPOS>BOND
     1     1     2    2
     2     2     9    1
     3     9    10    1
     4    10    11   ar
     5    11    12   ar
     6    12    13   ar
     7    13    15    1
     8    15    16    2
     9    15    17    1
    10    13    14   ar
    11     2     3   am
    12     3     4    1
    13     4     5    1
    14     5     6    1
    15     6    18    1
    16    18    19    1
    17    19    20   ar
    18    20    21   ar
    19    21    22   ar
    20    22    25    1
    21    25    26    1
    22    25    27    1
    23    25    28    1
    24    22    23   ar
    25    23    24   ar
    26     6     7    1
    27     7     8    1
    28    14    10   ar
    29     8     3    1
    30    24    19   ar
@<TRIPOS>MOLECULE
*****
 28 30 0 0 0
SMALL
GASTEIGER

@<TRIPOS>ATOM
      1 O          61.5162   86.4805   12.0570 O.2     1  UNL1       -0.2727
      2 C          61.4444   87.8299   11.4059 C.2     1  UNL1        0.2507
      3 N          62.4241   88.8998   11.7874 N.am    1  UNL1       -0.2751
      4 C          63.4756   88.6203   12.8201 C.3     1  UNL1        0.1108
      5 C          64.4552   89.6902   13.2016 C.3     1  UNL1        0.0942
      6 N          64.3834   91.0397   12.5504 N.3     1  UNL1       -0.2660
      7 C          63.3320   91.3192   11.5178 C.3     1  UNL1        0.0942
      8 C          62.3523   90.2493   11.1363 C.3     1  UNL1        0.1108
      9 C          60.3930   88.1094   10.3733 C.3     1  UNL1        0.2140
     10 N          60.2781   87.2308    9.1629 N.ar    1  UNL1       -0.2155
     11 C          59.0553   87.0586    8.3114 C.ar    1  UNL1        0.2037
     12 N          59.3873   86.0915    7.2138 N.ar    1  UNL1       -0.1391
     13 C          60.8153   85.6661    7.3871 C.ar    1  UNL1        0.4880
     14 N          61.3658   86.3702    8.5917 N.ar    1  UNL1       -0.0790
     15 N          61.5616   84.7052    6.5098 N.pl3   1  UNL1        0.1230
     16 O          63.0376   84.5120    6.6948 O.2     1  UNL1        0.0448
     17 O          60.8321   83.9376    5.4475 O.co2   1  UNL1       -0.5734
     18 C          65.3631   92.1096   12.9320 C.3     1  UNL1        0.0992
     19 C          65.9298   93.0170   11.8807 C.ar    1  UNL1       -0.0062
     20 C          66.6390   92.4376   10.6927 C.ar    1  UNL1       -0.0030
     21 C          67.2057   93.3451    9.6414 C.ar    1  UNL1        0.0036
     22 C          67.0634   94.8320    9.7781 C.ar    1  UNL1        0.0714
     23 C          66.3542   95.4115   10.9661 C.ar    1  UNL1        0.0036
     24 C          65.7875   94.5041   12.0174 C.ar    1  UNL1       -0.0030
     25 C          67.6301   95.7395    8.7268 C.3     1  UNL1        0.4186
     26 F          68.1969   96.6470    7.6754 F       1  UNL1       -0.1659
     27 F          67.7024   96.8541    9.7279 F       1  UNL1       -0.1659
     28 F          67.5578   94.6248    7.7257 F       1  UNL1       -0.1659
@<TRIPOS>UNITY_ATOM_ATTR
15 1
charge 1
17 1
charge -1
@<TRIPOS>BOND
     1     1     2    2
     2     2     9    1
     3     9    10    1
     4    10    11   ar
     5    11    12   ar
     6    12    13   ar
     7    13    15    1
     8    15    16    2
     9    15    17    1
    10    13    14   ar
    11     2     3   am
    12     3     4    1
    13     4     5    1
    14     5     6    1
    15     6    18    1
    16    18    19    1
    17    19    20   ar
    18    20    21   ar
    19    21    22   ar
    20    22    25    1
    21    25    26    1
    22    25    27    1
    23    25    28    1
    24    22    23   ar
    25    23    24   ar
    26     6     7    1
    27     7     8    1
    28    14    10   ar
    29     8     3    1
    30    24    19   ar
@<TRIPOS>MOLECULE
*****
 28 30 0 0 0
SMALL
GASTEIGER

@<TRIPOS>ATOM
      1 O          60.5247   88.0271    8.9858 O.2     1  UNL1       -0.2727
      2 C          61.1451   87.8729   10.3427 C.2     1  UNL1        0.2507
      3 N          62.1023   88.9096   10.8520 N.am    1  UNL1       -0.2751
      4 C          62.4390   90.1003   10.0043 C.3     1  UNL1        0.1108
      5 C          63.3961   91.1369   10.5136 C.3     1  UNL1        0.0942
      6 N          64.0165   90.9827   11.8705 N.3     1  UNL1       -0.2660
      7 C          63.6798   89.7919   12.7182 C.3     1  UNL1        0.0942
      8 C          62.7227   88.7554   12.2089 C.3     1  UNL1        0.1108
      9 C          60.8084   86.6821   11.1904 C.3     1  UNL1        0.2140
     10 N          61.8702   85.6779   11.5286 N.ar    1  UNL1       -0.2155
     11 C          62.6426   84.8472   10.5472 C.ar    1  UNL1        0.2037
     12 N          63.5957   83.9839   11.3196 N.ar    1  UNL1       -0.1391
     13 C          63.4122   84.2812   12.7784 C.ar    1  UNL1        0.4880
     14 N          62.3458   85.3281   12.9075 N.ar    1  UNL1       -0.0790
     15 N          64.1632   83.6436   13.9094 N.pl3   1  UNL1        0.1230
     16 O          65.4722   84.2209   14.3603 O.2     1  UNL1        0.0448
     17 O          63.6054   82.4286   14.5896 O.co2   1  UNL1       -0.5734
     18 C          64.9737   92.0194   12.3798 C.3     1  UNL1        0.0992
     19 C          65.6347   92.9651   11.4213 C.ar    1  UNL1       -0.0062
     20 C          65.3170   94.4301   11.4739 C.ar    1  UNL1       -0.0030
     21 C          65.9781   95.3758   10.5155 C.ar    1  UNL1        0.0036
     22 C          66.9569   94.8565    9.5044 C.ar    1  UNL1        0.0714
     23 C          67.2746   93.3915    9.4518 C.ar    1  UNL1        0.0036
     24 C          66.6136   92.4458   10.4102 C.ar    1  UNL1       -0.0030
     25 C          67.6179   95.8022    8.5460 C.3     1  UNL1        0.4186
     26 F          68.2790   96.7480    7.5876 F       1  UNL1       -0.1659
     27 F          67.5743   94.7501    7.4778 F       1  UNL1       -0.1659
     28 F          67.6616   96.8543    9.6143 F       1  UNL1       -0.1659
@<TRIPOS>UNITY_ATOM_ATTR
15 1
charge 1
17 1
charge -1
@<TRIPOS>BOND
     1     1     2    2
     2     2     9    1
     3     9    10    1
     4    10    11   ar
     5    11    12   ar
     6    12    13   ar
     7    13    15    1
     8    15    16    2
     9    15    17    1
    10    13    14   ar
    11     2     3   am
    12     3     4    1
    13     4     5    1
    14     5     6    1
    15     6    18    1
    16    18    19    1
    17    19    20   ar
    18    20    21   ar
    19    21    22   ar
    20    22    25    1
    21    25    26    1
    22    25    27    1
    23    25    28    1
    24    22    23   ar
    25    23    24   ar
    26     6     7    1
    27     7     8    1
    28    14    10   ar
    29     8     3    1
    30    24    19   ar
@<TRIPOS>MOLECULE
*****
 28 30 0 0 0
SMALL
GASTEIGER

@<TRIPOS>ATOM
      1 O          61.1571   85.9225    9.6903 O.2     1  UNL1       -0.2727
      2 C          61.8740   86.2188   10.9741 C.2     1  UNL1        0.2507
      3 N          62.4142   87.5944   11.2312 N.am    1  UNL1       -0.2751
      4 C          62.2375   88.6736   10.2045 C.3     1  UNL1        0.1108
      5 C          62.7778   90.0490   10.4617 C.3     1  UNL1        0.0942
      6 N          63.4947   90.3454   11.7455 N.3     1  UNL1       -0.2660
      7 C          63.6714   89.2662   12.7722 C.3     1  UNL1        0.0942
      8 C          63.1312   87.8907   12.5150 C.3     1  UNL1        0.1108
      9 C          62.0507   85.1397   12.0008 C.3     1  UNL1        0.2140
     10 N          62.5659   83.7917   11.5911 N.ar    1  UNL1       -0.2155
     11 C          63.5996   83.5261   10.5371 C.ar    1  UNL1        0.2037
     12 N          63.8104   82.0430   10.4580 N.ar    1  UNL1       -0.1391
     13 C          62.9070   81.3922   11.4632 C.ar    1  UNL1        0.4880
     14 N          62.1378   82.4730   12.1635 N.ar    1  UNL1       -0.0790
     15 N          62.7927   79.9193   11.7226 N.pl3   1  UNL1        0.1230
     16 O          62.8422   78.9503   10.5787 O.2     1  UNL1        0.0448
     17 O          62.6290   79.4152   13.1259 O.co2   1  UNL1       -0.5734
     18 C          64.0349   91.7209   12.0026 C.3     1  UNL1        0.0992
     19 C          65.1877   91.9102   12.9435 C.ar    1  UNL1       -0.0062
     20 C          64.9697   91.8185   14.4247 C.ar    1  UNL1       -0.0030
     21 C          66.1225   92.0078   15.3656 C.ar    1  UNL1        0.0036
     22 C          67.4933   92.2888   14.8252 C.ar    1  UNL1        0.0714
     23 C          67.7112   92.3806   13.3440 C.ar    1  UNL1        0.0036
     24 C          66.5585   92.1913   12.4031 C.ar    1  UNL1       -0.0030
     25 C          68.6460   92.4781   15.7661 C.3     1  UNL1        0.4186
     26 F          69.7988   92.6674   16.7070 F       1  UNL1       -0.1659
     27 F          69.5713   92.6490   14.5980 F       1  UNL1       -0.1659
     28 F          67.7207   92.3072   16.9342 F       1  UNL1       -0.1659
@<TRIPOS>UNITY_ATOM_ATTR
15 1
charge 1
17 1
charge -1
@<TRIPOS>BOND
     1     1     2    2
     2     2     9    1
     3     9    10    1
     4    10    11   ar
     5    11    12   ar
     6    12    13   ar
     7    13    15    1
     8    15    16    2
     9    15    17    1
    10    13    14   ar
    11     2     3   am
    12     3     4    1
    13     4     5    1
    14     5     6    1
    15     6    18    1
    16    18    19    1
    17    19    20   ar
    18    20    21   ar
    19    21    22   ar
    20    22    25    1
    21    25    26    1
    22    25    27    1
    23    25    28    1
    24    22    23   ar
    25    23    24   ar
    26     6     7    1
    27     7     8    1
    28    14    10   ar
    29     8     3    1
    30    24    19   ar
