@<TRIPOS>MOLECULE
*****
 41 46 0 0 0
SMALL
GASTEIGER

@<TRIPOS>ATOM
      1 C          60.8810   86.1285    8.7185 C.ar    1  UNL1        0.1667
      2 N          61.9318   85.1332    8.3245 N.ar    1  UNL1       -0.2239
      3 C          62.6961   84.7532    9.5579 C.ar    1  UNL1        0.0893
      4 C          63.8440   83.8130    9.7776 C.ar    1  UNL1        0.0202
      5 C          64.4135   83.6333   11.1535 C.ar    1  UNL1        0.0081
      6 C          63.8352   84.3939   12.3098 C.ar    1  UNL1        0.0329
      7 C          62.6873   85.3341   12.0902 C.ar    1  UNL1        0.0146
      8 C          62.1178   85.5138   10.7143 C.ar    1  UNL1        0.0502
      9 S          60.9960   86.3637   10.1954 S.2     1  UNL1       -0.0513
     10 O          60.7605   89.1185    8.5044 O.2     1  UNL1       -0.2524
     11 C          59.8292   88.2701    7.6902 C.2     1  UNL1        0.3059
     12 N          58.8376   88.9167    6.7690 N.am    1  UNL1       -0.2872
     13 N          59.8894   86.7751    7.7972 N.am    1  UNL1       -0.2485
     14 H          58.2263   88.3599    6.2346 H       1  UNL1        0.1510
     15 H          59.2782   86.2183    7.2628 H       1  UNL1        0.1583
     16 C          58.7773   90.4117    6.6620 C.3     1  UNL1        0.1082
     17 C          58.4834   91.0578    5.3405 C.3     1  UNL1        0.0938
     18 N          59.6081   91.5601    4.4846 N.3     1  UNL1       -0.2670
     19 C          60.9920   91.0105    4.6661 C.3     1  UNL1        0.1047
     20 C          62.1167   91.5129    3.8101 C.3     1  UNL1        0.1595
     21 O          61.8576   92.5649    2.7728 O.3     1  UNL1       -0.3508
     22 C          60.4738   93.1145    2.5913 C.3     1  UNL1        0.1595
     23 C          59.3490   92.6122    3.4473 C.3     1  UNL1        0.1047
     24 S          64.4048   84.2141   13.6858 S.3     1  UNL1       -0.0470
     25 C          63.6767   84.7636   14.8766 C.ar    1  UNL1        0.2172
     26 N          62.8442   83.9739   15.8426 N.ar    1  UNL1       -0.1200
     27 N          62.3063   84.9214   16.8735 N.ar    1  UNL1       -0.1264
     28 C          62.8064   86.2969   16.5446 C.ar    1  UNL1        0.1874
     29 C          62.6000   87.6255   17.2094 C.ar    1  UNL1        0.0455
     30 C          63.2405   88.8566   16.6402 C.ar    1  UNL1        0.0624
     31 C          64.0876   88.7591   15.4060 C.ar    1  UNL1        0.2423
     32 N          64.2940   87.4304   14.7412 N.ar    1  UNL1       -0.1242
     33 N          63.6534   86.1993   15.3104 N.ar    1  UNL1       -0.1830
     34 O          64.7281   89.9901   14.8368 O.3     1  UNL1       -0.4631
     35 C          64.3731   90.4491   13.4536 C.3     1  UNL1        0.1676
     36 C          63.2665   89.6924   12.7807 C.3     1  UNL1        0.0436
     37 C          62.6851   89.9038   11.4142 C.3     1  UNL1        0.0037
     38 C          63.0667   90.9242   10.3830 C.3     1  UNL1        0.0001
     39 C          64.1240   91.9851   10.4638 C.3     1  UNL1        0.0001
     40 C          65.0607   92.2877   11.5956 C.3     1  UNL1        0.0037
     41 C          65.1716   91.6042   12.9261 C.3     1  UNL1        0.0436
@<TRIPOS>BOND
     1    10    11    2
     2    11    12   am
     3    12    16    1
     4    16    17    1
     5    17    18    1
     6    18    19    1
     7    19    20    1
     8    20    21    1
     9    21    22    1
    10    22    23    1
    11    11    13   am
    12    13     1    1
    13     1     2   ar
    14     2     3   ar
    15     3     4   ar
    16     4     5   ar
    17     5     6   ar
    18     6    24    1
    19    24    25    1
    20    25    26   ar
    21    26    27   ar
    22    27    28   ar
    23    28    29   ar
    24    29    30   ar
    25    30    31   ar
    26    31    34    1
    27    34    35    1
    28    35    36    1
    29    36    37    1
    30    37    38    1
    31    38    39    1
    32    39    40    1
    33    40    41    1
    34    31    32   ar
    35    32    33   ar
    36     6     7   ar
    37     7     8   ar
    38     8     9   ar
    39    23    18    1
    40     9     1   ar
    41     8     3   ar
    42    33    25   ar
    43    33    28   ar
    44    41    35    1
    45    12    14    1
    46    13    15    1
@<TRIPOS>MOLECULE
*****
 41 46 0 0 0
SMALL
GASTEIGER

@<TRIPOS>ATOM
      1 C          63.2198   85.3788   16.0412 C.ar    1  UNL1        0.1667
      2 N          62.5149   86.4590   16.8069 N.ar    1  UNL1       -0.2239
      3 C          63.1051   87.7765   16.3997 C.ar    1  UNL1        0.0893
      4 C          62.8067   89.1840   16.8239 C.ar    1  UNL1        0.0202
      5 C          63.5780   90.3255   16.2308 C.ar    1  UNL1        0.0081
      6 C          64.6478   90.0596   15.2135 C.ar    1  UNL1        0.0329
      7 C          64.9462   88.6522   14.7893 C.ar    1  UNL1        0.0146
      8 C          64.1749   87.5106   15.3824 C.ar    1  UNL1        0.0502
      9 S          64.2457   86.0288   15.1608 S.2     1  UNL1       -0.0513
     10 O          61.9773   83.9272   13.7283 O.2     1  UNL1       -0.2524
     11 C          62.3255   83.1813   14.9824 C.2     1  UNL1        0.3059
     12 N          62.0525   81.7096   15.0799 N.am    1  UNL1       -0.2872
     13 N          62.9467   83.9071   16.1387 N.am    1  UNL1       -0.2485
     14 H          62.2810   81.2200   15.9029 H       1  UNL1        0.1510
     15 H          63.1752   83.4176   16.9617 H       1  UNL1        0.1583
     16 C          61.4312   80.9838   13.9234 C.3     1  UNL1        0.1082
     17 C          62.2976   80.4413   12.8257 C.3     1  UNL1        0.0938
     18 N          63.2008   81.3614   12.0590 N.3     1  UNL1       -0.2670
     19 C          64.2512   82.1536   12.7796 C.3     1  UNL1        0.1047
     20 C          65.1543   83.0736   12.0129 C.3     1  UNL1        0.1595
     21 O          65.0071   83.2015   10.5257 O.3     1  UNL1       -0.3508
     22 C          63.9568   82.4094    9.8051 C.3     1  UNL1        0.1595
     23 C          63.0536   81.4893   10.5717 C.3     1  UNL1        0.1047
     24 S          65.4191   91.2013   14.6203 S.3     1  UNL1       -0.0470
     25 C          65.0904   91.6927   13.2418 C.ar    1  UNL1        0.2172
     26 N          65.6479   92.9220   12.5876 N.ar    1  UNL1       -0.1200
     27 N          65.0484   93.0301   11.2169 N.ar    1  UNL1       -0.1264
     28 C          64.1203   91.8675   11.0239 C.ar    1  UNL1        0.1874
     29 C          63.2550   91.4548    9.8703 C.ar    1  UNL1        0.0455
     30 C          62.4156   90.2156    9.9681 C.ar    1  UNL1        0.0624
     31 C          62.4415   89.3890   11.2195 C.ar    1  UNL1        0.2423
     32 N          63.3068   89.8017   12.3731 N.ar    1  UNL1       -0.1242
     33 N          64.1463   91.0410   12.2754 N.ar    1  UNL1       -0.1830
     34 O          61.6021   88.1498   11.3174 O.3     1  UNL1       -0.4631
     35 C          61.3087   87.3435   10.0870 C.3     1  UNL1        0.1676
     36 C          59.9231   87.4860    9.5305 C.3     1  UNL1        0.0436
     37 C          59.3263   86.8216    8.3253 C.3     1  UNL1        0.0037
     38 C          59.9678   85.8505    7.3790 C.3     1  UNL1        0.0001
     39 C          61.3645   85.3041    7.4041 C.3     1  UNL1        0.0001
     40 C          62.4646   85.5938    8.3818 C.3     1  UNL1        0.0037
     41 C          62.4398   86.5014    9.5757 C.3     1  UNL1        0.0436
@<TRIPOS>BOND
     1    10    11    2
     2    11    12   am
     3    12    16    1
     4    16    17    1
     5    17    18    1
     6    18    19    1
     7    19    20    1
     8    20    21    1
     9    21    22    1
    10    22    23    1
    11    11    13   am
    12    13     1    1
    13     1     2   ar
    14     2     3   ar
    15     3     4   ar
    16     4     5   ar
    17     5     6   ar
    18     6    24    1
    19    24    25    1
    20    25    26   ar
    21    26    27   ar
    22    27    28   ar
    23    28    29   ar
    24    29    30   ar
    25    30    31   ar
    26    31    34    1
    27    34    35    1
    28    35    36    1
    29    36    37    1
    30    37    38    1
    31    38    39    1
    32    39    40    1
    33    40    41    1
    34    31    32   ar
    35    32    33   ar
    36     6     7   ar
    37     7     8   ar
    38     8     9   ar
    39    23    18    1
    40     9     1   ar
    41     8     3   ar
    42    33    25   ar
    43    33    28   ar
    44    41    35    1
    45    12    14    1
    46    13    15    1
@<TRIPOS>MOLECULE
*****
 41 46 0 0 0
SMALL
GASTEIGER

@<TRIPOS>ATOM
      1 C          64.0040   89.7973   15.8546 C.ar    1  UNL1        0.1667
      2 N          63.2736   89.1485   16.9928 N.ar    1  UNL1       -0.2239
      3 C          63.1005   87.6952   16.6642 C.ar    1  UNL1        0.0893
      4 C          62.4558   86.5667   17.4130 C.ar    1  UNL1        0.0202
      5 C          62.4346   85.1889   16.8205 C.ar    1  UNL1        0.0081
      6 C          63.0581   84.9395   15.4792 C.ar    1  UNL1        0.0329
      7 C          63.7028   86.0680   14.7304 C.ar    1  UNL1        0.0146
      8 C          63.7241   87.4458   15.3229 C.ar    1  UNL1        0.0502
      9 S          64.2824   88.7450   14.8226 S.2     1  UNL1       -0.0513
     10 O          65.9857   90.6968   13.7897 O.2     1  UNL1       -0.2524
     11 C          65.3794   91.6942   14.7319 C.2     1  UNL1        0.3059
     12 N          65.7639   93.1412   14.6417 N.am    1  UNL1       -0.2872
     13 N          64.3885   91.2444   15.7644 N.am    1  UNL1       -0.2485
     14 H          65.3659   93.7958   15.2601 H       1  UNL1        0.1510
     15 H          63.9906   91.8990   16.3828 H       1  UNL1        0.1583
     16 C          66.7548   93.5910   13.6092 C.3     1  UNL1        0.1082
     17 C          66.2749   94.1725   12.3124 C.3     1  UNL1        0.0938
     18 N          66.9378   93.7824   11.0246 N.3     1  UNL1       -0.2670
     19 C          67.4920   92.3988   10.8554 C.3     1  UNL1        0.1047
     20 C          68.1549   92.0087    9.5677 C.3     1  UNL1        0.1595
     21 O          68.2636   93.0021    8.4491 O.3     1  UNL1       -0.3508
     22 C          67.7095   94.3857    8.6182 C.3     1  UNL1        0.1595
     23 C          67.0465   94.7758    9.9061 C.3     1  UNL1        0.1047
     24 S          63.0368   83.5616   14.8868 S.3     1  UNL1       -0.0470
     25 C          63.6563   83.3131   13.5435 C.ar    1  UNL1        0.2172
     26 N          64.8237   82.4137   13.2637 N.ar    1  UNL1       -0.1200
     27 N          65.1061   82.4652   11.7914 N.ar    1  UNL1       -0.1264
     28 C          64.1131   83.3964   11.1613 C.ar    1  UNL1        0.1874
     29 C          63.9091   83.8349    9.7414 C.ar    1  UNL1        0.0455
     30 C          62.8092   84.7973    9.4043 C.ar    1  UNL1        0.0624
     31 C          61.9131   85.3214   10.4871 C.ar    1  UNL1        0.2423
     32 N          62.1171   84.8829   11.9070 N.ar    1  UNL1       -0.1242
     33 N          63.2172   83.9204   12.2441 N.ar    1  UNL1       -0.1830
     34 O          60.8132   86.2838   10.1501 O.3     1  UNL1       -0.4631
     35 C          60.9621   87.7391   10.4817 C.3     1  UNL1        0.1676
     36 C          62.2419   88.3809   10.0343 C.3     1  UNL1        0.0436
     37 C          62.6872   89.8023   10.2116 C.3     1  UNL1        0.0037
     38 C          61.9627   90.9329   10.8802 C.3     1  UNL1        0.0001
     39 C          60.6140   90.9213   11.5364 C.3     1  UNL1        0.0001
     40 C          59.6566   89.7763   11.6863 C.3     1  UNL1        0.0037
     41 C          59.8115   88.3601   11.2169 C.3     1  UNL1        0.0436
@<TRIPOS>BOND
     1    10    11    2
     2    11    12   am
     3    12    16    1
     4    16    17    1
     5    17    18    1
     6    18    19    1
     7    19    20    1
     8    20    21    1
     9    21    22    1
    10    22    23    1
    11    11    13   am
    12    13     1    1
    13     1     2   ar
    14     2     3   ar
    15     3     4   ar
    16     4     5   ar
    17     5     6   ar
    18     6    24    1
    19    24    25    1
    20    25    26   ar
    21    26    27   ar
    22    27    28   ar
    23    28    29   ar
    24    29    30   ar
    25    30    31   ar
    26    31    34    1
    27    34    35    1
    28    35    36    1
    29    36    37    1
    30    37    38    1
    31    38    39    1
    32    39    40    1
    33    40    41    1
    34    31    32   ar
    35    32    33   ar
    36     6     7   ar
    37     7     8   ar
    38     8     9   ar
    39    23    18    1
    40     9     1   ar
    41     8     3   ar
    42    33    25   ar
    43    33    28   ar
    44    41    35    1
    45    12    14    1
    46    13    15    1
@<TRIPOS>MOLECULE
*****
 41 46 0 0 0
SMALL
GASTEIGER

@<TRIPOS>ATOM
      1 C          59.6283   87.6421    7.8748 C.ar    1  UNL1        0.1667
      2 N          60.3885   86.6815    7.0092 N.ar    1  UNL1       -0.2239
      3 C          61.3472   85.9286    7.8833 C.ar    1  UNL1        0.0893
      4 C          62.3512   84.8561    7.5808 C.ar    1  UNL1        0.0202
      5 C          63.1874   84.2788    8.6841 C.ar    1  UNL1        0.0081
      6 C          63.0196   84.7740   10.0900 C.ar    1  UNL1        0.0329
      7 C          62.0156   85.8466   10.3926 C.ar    1  UNL1        0.0146
      8 C          61.1794   86.4238    9.2892 C.ar    1  UNL1        0.0502
      9 S          60.1171   87.4828    9.2840 S.2     1  UNL1       -0.0513
     10 O          60.2281   89.6161    5.6968 O.2     1  UNL1       -0.2524
     11 C          58.8657   89.5816    6.3235 C.2     1  UNL1        0.3059
     12 N          57.8032   90.5342    5.8612 N.am    1  UNL1       -0.2872
     13 N          58.5658   88.5947    7.4125 N.am    1  UNL1       -0.2485
     14 H          56.9090   90.5116    6.2725 H       1  UNL1        0.1510
     15 H          57.6716   88.5721    7.8238 H       1  UNL1        0.1583
     16 C          58.1031   91.5212    4.7722 C.3     1  UNL1        0.1082
     17 C          59.3975   92.2791    4.7825 C.3     1  UNL1        0.0938
     18 N          60.2058   92.4001    3.5248 N.3     1  UNL1       -0.2670
     19 C          59.5659   92.9119    2.2683 C.3     1  UNL1        0.1047
     20 C          60.3742   93.0330    1.0106 C.3     1  UNL1        0.1595
     21 O          61.8224   92.6423    1.0092 O.3     1  UNL1       -0.3508
     22 C          62.4624   92.1306    2.2656 C.3     1  UNL1        0.1595
     23 C          61.6541   92.0095    3.5234 C.3     1  UNL1        0.1047
     24 S          63.8559   84.1967   11.1934 S.3     1  UNL1       -0.0470
     25 C          63.2557   83.9698   12.5492 C.ar    1  UNL1        0.2172
     26 N          62.4864   82.7566   12.9811 N.ar    1  UNL1       -0.1200
     27 N          62.0747   82.9532   14.4100 N.ar    1  UNL1       -0.1264
     28 C          62.5896   84.2879   14.8612 C.ar    1  UNL1        0.1874
     29 C          62.4881   85.0124   16.1707 C.ar    1  UNL1        0.0455
     30 C          63.1164   86.3650   16.3303 C.ar    1  UNL1        0.0624
     31 C          63.8464   86.9933   15.1802 C.ar    1  UNL1        0.2423
     32 N          63.9479   86.2688   13.8707 N.ar    1  UNL1       -0.1242
     33 N          63.3195   84.9161   13.7112 N.ar    1  UNL1       -0.1830
     34 O          64.4747   88.3459   15.3397 O.3     1  UNL1       -0.4631
     35 C          64.3889   89.3486   14.2275 C.3     1  UNL1        0.1676
     36 C          63.4470   89.0043   13.1120 C.3     1  UNL1        0.0436
     37 C          63.1399   89.7895   11.8713 C.3     1  UNL1        0.0037
     38 C          63.6989   91.1129   11.4396 C.3     1  UNL1        0.0001
     39 C          64.7029   91.9779   12.1422 C.3     1  UNL1        0.0001
     40 C          65.3960   91.7332   13.4497 C.3     1  UNL1        0.0037
     41 C          65.2563   90.5631   14.3778 C.3     1  UNL1        0.0436
@<TRIPOS>BOND
     1    10    11    2
     2    11    12   am
     3    12    16    1
     4    16    17    1
     5    17    18    1
     6    18    19    1
     7    19    20    1
     8    20    21    1
     9    21    22    1
    10    22    23    1
    11    11    13   am
    12    13     1    1
    13     1     2   ar
    14     2     3   ar
    15     3     4   ar
    16     4     5   ar
    17     5     6   ar
    18     6    24    1
    19    24    25    1
    20    25    26   ar
    21    26    27   ar
    22    27    28   ar
    23    28    29   ar
    24    29    30   ar
    25    30    31   ar
    26    31    34    1
    27    34    35    1
    28    35    36    1
    29    36    37    1
    30    37    38    1
    31    38    39    1
    32    39    40    1
    33    40    41    1
    34    31    32   ar
    35    32    33   ar
    36     6     7   ar
    37     7     8   ar
    38     8     9   ar
    39    23    18    1
    40     9     1   ar
    41     8     3   ar
    42    33    25   ar
    43    33    28   ar
    44    41    35    1
    45    12    14    1
    46    13    15    1
@<TRIPOS>MOLECULE
*****
 41 46 0 0 0
SMALL
GASTEIGER

@<TRIPOS>ATOM
      1 C          59.7455   88.7689    8.2025 C.ar    1  UNL1        0.1667
      2 N          60.1451   87.4306    8.7494 N.ar    1  UNL1       -0.2239
      3 C          61.1339   87.6577    9.8543 C.ar    1  UNL1        0.0893
      4 C          61.8689   86.7091   10.7541 C.ar    1  UNL1        0.0202
      5 C          62.8155   87.2392   11.7898 C.ar    1  UNL1        0.0081
      6 C          63.0271   88.7180   11.9258 C.ar    1  UNL1        0.0329
      7 C          62.2920   89.6666   11.0260 C.ar    1  UNL1        0.0146
      8 C          61.3454   89.1365    9.9902 C.ar    1  UNL1        0.0502
      9 S          60.4873   89.8232    8.9694 S.2     1  UNL1       -0.0513
     10 O          60.1269   91.1084    6.3636 O.2     1  UNL1       -0.2524
     11 C          58.9652   90.1803    6.1655 C.2     1  UNL1        0.3059
     12 N          57.9943   90.4219    5.0480 N.am    1  UNL1       -0.2872
     13 N          58.7745   89.0106    7.0850 N.am    1  UNL1       -0.2485
     14 H          57.2318   89.8128    4.9180 H       1  UNL1        0.1510
     15 H          58.0121   88.4015    6.9550 H       1  UNL1        0.1583
     16 C          58.1850   91.5916    4.1285 C.3     1  UNL1        0.1082
     17 C          59.4550   92.3881    4.1817 C.3     1  UNL1        0.0938
     18 N          60.2423   92.6289    2.9279 N.3     1  UNL1       -0.2670
     19 C          59.5503   93.1173    1.6899 C.3     1  UNL1        0.1047
     20 C          60.3377   93.3581    0.4361 C.3     1  UNL1        0.1595
     21 O          61.8170   93.1106    0.4202 O.3     1  UNL1       -0.3508
     22 C          62.5091   92.6223    1.6582 C.3     1  UNL1        0.1595
     23 C          61.7217   92.3814    2.9121 C.3     1  UNL1        0.1047
     24 S          63.9737   89.2481   12.9616 S.3     1  UNL1       -0.0470
     25 C          63.5774   89.2514   14.4083 C.ar    1  UNL1        0.2172
     26 N          63.1921   90.4565   15.2141 N.ar    1  UNL1       -0.1200
     27 N          62.8733   90.0002   16.6070 N.ar    1  UNL1       -0.1264
     28 C          63.0615   88.5130   16.6619 C.ar    1  UNL1        0.1874
     29 C          62.8929   87.5204   17.7738 C.ar    1  UNL1        0.0455
     30 C          63.1594   86.0651   17.5269 C.ar    1  UNL1        0.0624
     31 C          63.5946   85.6023   16.1680 C.ar    1  UNL1        0.2423
     32 N          63.7632   86.5949   15.0561 N.ar    1  UNL1       -0.1242
     33 N          63.4967   88.0503   15.3031 N.ar    1  UNL1       -0.1830
     34 O          63.8611   84.1470   15.9210 O.3     1  UNL1       -0.4631
     35 C          63.5617   83.5469   14.5793 C.3     1  UNL1        0.1676
     36 C          62.5179   82.4697   14.5665 C.3     1  UNL1        0.0436
     37 C          62.0003   81.6828   13.3990 C.3     1  UNL1        0.0037
     38 C          62.3987   81.7788   11.9560 C.3     1  UNL1        0.0001
     39 C          63.4130   82.6854   11.3242 C.3     1  UNL1        0.0001
     40 C          64.2795   83.7199   11.9793 C.3     1  UNL1        0.0037
     41 C          64.3457   84.1033   13.4279 C.3     1  UNL1        0.0436
@<TRIPOS>BOND
     1    10    11    2
     2    11    12   am
     3    12    16    1
     4    16    17    1
     5    17    18    1
     6    18    19    1
     7    19    20    1
     8    20    21    1
     9    21    22    1
    10    22    23    1
    11    11    13   am
    12    13     1    1
    13     1     2   ar
    14     2     3   ar
    15     3     4   ar
    16     4     5   ar
    17     5     6   ar
    18     6    24    1
    19    24    25    1
    20    25    26   ar
    21    26    27   ar
    22    27    28   ar
    23    28    29   ar
    24    29    30   ar
    25    30    31   ar
    26    31    34    1
    27    34    35    1
    28    35    36    1
    29    36    37    1
    30    37    38    1
    31    38    39    1
    32    39    40    1
    33    40    41    1
    34    31    32   ar
    35    32    33   ar
    36     6     7   ar
    37     7     8   ar
    38     8     9   ar
    39    23    18    1
    40     9     1   ar
    41     8     3   ar
    42    33    25   ar
    43    33    28   ar
    44    41    35    1
    45    12    14    1
    46    13    15    1
@<TRIPOS>MOLECULE
*****
 41 46 0 0 0
SMALL
GASTEIGER

@<TRIPOS>ATOM
      1 C          59.4291   88.3600    7.7061 C.ar    1  UNL1        0.1667
      2 N          60.0529   88.6639    9.0359 N.ar    1  UNL1       -0.2239
      3 C          60.9994   87.5491    9.3696 C.ar    1  UNL1        0.0893
      4 C          61.8916   87.3098   10.5514 C.ar    1  UNL1        0.0202
      5 C          62.7450   86.0776   10.6095 C.ar    1  UNL1        0.0081
      6 C          62.7061   85.0847    9.4859 C.ar    1  UNL1        0.0329
      7 C          61.8140   85.3240    8.3041 C.ar    1  UNL1        0.0146
      8 C          60.9606   86.5562    8.2459 C.ar    1  UNL1        0.0502
      9 S          59.9901   87.0574    7.2178 S.2     1  UNL1       -0.0513
     10 O          60.3189   90.2475    5.5506 O.2     1  UNL1       -0.2524
     11 C          58.8662   90.1533    5.9125 C.2     1  UNL1        0.3059
     12 N          57.8584   91.0029    5.1966 N.am    1  UNL1       -0.2872
     13 N          58.4213   89.2096    6.9902 N.am    1  UNL1       -0.2485
     14 H          56.9049   90.9411    5.4340 H       1  UNL1        0.1510
     15 H          57.4679   89.1478    7.2276 H       1  UNL1        0.1583
     16 C          58.3033   91.9467    4.1188 C.3     1  UNL1        0.1082
     17 C          59.6301   92.6378    4.2279 C.3     1  UNL1        0.0938
     18 N          60.5012   92.7845    3.0156 N.3     1  UNL1       -0.2670
     19 C          59.9713   93.4669    1.7893 C.3     1  UNL1        0.1047
     20 C          60.8424   93.6136    0.5771 C.3     1  UNL1        0.1595
     21 O          62.2434   93.0779    0.5910 O.3     1  UNL1       -0.3508
     22 C          62.7734   92.3956    1.8172 C.3     1  UNL1        0.1595
     23 C          61.9022   92.2489    3.0295 C.3     1  UNL1        0.1047
     24 S          63.5596   83.8524    9.5441 S.3     1  UNL1       -0.0470
     25 C          63.3784   82.8667   10.6600 C.ar    1  UNL1        0.2172
     26 N          62.7617   81.5044   10.5417 N.ar    1  UNL1       -0.1200
     27 N          62.7843   80.8659   11.8988 N.ar    1  UNL1       -0.1264
     28 C          63.4149   81.8336   12.8559 C.ar    1  UNL1        0.1874
     29 C          63.7022   81.7486   14.3257 C.ar    1  UNL1        0.0455
     30 C          64.3567   82.8999   15.0299 C.ar    1  UNL1        0.0624
     31 C          64.7239   84.1365   14.2642 C.ar    1  UNL1        0.2423
     32 N          64.4366   84.2216   12.7945 N.ar    1  UNL1       -0.1242
     33 N          63.7821   83.0701   12.0903 N.ar    1  UNL1       -0.1830
     34 O          65.3784   85.2879   14.9683 O.3     1  UNL1       -0.4631
     35 C          64.5458   86.4274   15.4766 C.3     1  UNL1        0.1676
     36 C          64.6826   87.7188   14.7260 C.3     1  UNL1        0.0436
     37 C          63.9939   89.0267   14.9817 C.3     1  UNL1        0.0037
     38 C          62.9982   89.3660   16.0511 C.3     1  UNL1        0.0001
     39 C          62.4455   88.4813   17.1289 C.3     1  UNL1        0.0001
     40 C          62.7518   87.0388   17.4035 C.3     1  UNL1        0.0037
     41 C          63.6865   86.1247   16.6682 C.3     1  UNL1        0.0436
@<TRIPOS>BOND
     1    10    11    2
     2    11    12   am
     3    12    16    1
     4    16    17    1
     5    17    18    1
     6    18    19    1
     7    19    20    1
     8    20    21    1
     9    21    22    1
    10    22    23    1
    11    11    13   am
    12    13     1    1
    13     1     2   ar
    14     2     3   ar
    15     3     4   ar
    16     4     5   ar
    17     5     6   ar
    18     6    24    1
    19    24    25    1
    20    25    26   ar
    21    26    27   ar
    22    27    28   ar
    23    28    29   ar
    24    29    30   ar
    25    30    31   ar
    26    31    34    1
    27    34    35    1
    28    35    36    1
    29    36    37    1
    30    37    38    1
    31    38    39    1
    32    39    40    1
    33    40    41    1
    34    31    32   ar
    35    32    33   ar
    36     6     7   ar
    37     7     8   ar
    38     8     9   ar
    39    23    18    1
    40     9     1   ar
    41     8     3   ar
    42    33    25   ar
    43    33    28   ar
    44    41    35    1
    45    12    14    1
    46    13    15    1
@<TRIPOS>MOLECULE
*****
 41 46 0 0 0
SMALL
GASTEIGER

@<TRIPOS>ATOM
      1 C          64.3672   85.0606   15.5103 C.ar    1  UNL1        0.1667
      2 N          63.5002   85.5689   16.6239 N.ar    1  UNL1       -0.2239
      3 C          63.4958   87.0676   16.5608 C.ar    1  UNL1        0.0893
      4 C          62.8165   88.1057   17.4039 C.ar    1  UNL1        0.0202
      5 C          63.0014   89.5617   17.0945 C.ar    1  UNL1        0.0081
      6 C          63.8657   89.9796   15.9419 C.ar    1  UNL1        0.0329
      7 C          64.5450   88.9416   15.0988 C.ar    1  UNL1        0.0146
      8 C          64.3601   87.4856   15.4082 C.ar    1  UNL1        0.0502
      9 S          64.8986   86.2452   14.7590 S.2     1  UNL1       -0.0513
     10 O          62.2019   83.3068   14.3988 O.2     1  UNL1       -0.2524
     11 C          63.5701   82.7437   14.6465 C.2     1  UNL1        0.3059
     12 N          63.8555   81.3037   14.3383 N.am    1  UNL1       -0.2872
     13 N          64.6527   83.6206   15.2022 N.am    1  UNL1       -0.2485
     14 H          64.7534   80.9342   14.5008 H       1  UNL1        0.1510
     15 H          65.5506   83.2511   15.3647 H       1  UNL1        0.1583
     16 C          62.7728   80.4268   13.7825 C.3     1  UNL1        0.1082
     17 C          62.4058   80.5170   12.3309 C.3     1  UNL1        0.0938
     18 N          62.8460   81.6982   11.5180 N.3     1  UNL1       -0.2670
     19 C          63.9909   81.5635   10.5583 C.3     1  UNL1        0.1047
     20 C          64.4311   82.7448    9.7454 C.3     1  UNL1        0.1595
     21 O          63.7264   84.0608    9.8922 O.3     1  UNL1       -0.3508
     22 C          62.5815   84.1955   10.8520 C.3     1  UNL1        0.1595
     23 C          62.1413   83.0142   11.6649 C.3     1  UNL1        0.1047
     24 S          64.0506   91.4357   15.6325 S.3     1  UNL1       -0.0470
     25 C          65.1410   91.8716   14.6993 C.ar    1  UNL1        0.2172
     26 N          66.5148   92.3229   15.0981 N.ar    1  UNL1       -0.1200
     27 N          67.2720   92.6629   13.8487 N.ar    1  UNL1       -0.1264
     28 C          66.3661   92.4217   12.6776 C.ar    1  UNL1        0.1874
     29 C          66.5703   92.5842   11.2005 C.ar    1  UNL1        0.0455
     30 C          65.4576   92.2578   10.2491 C.ar    1  UNL1        0.0624
     31 C          64.1406   91.7687   10.7748 C.ar    1  UNL1        0.2423
     32 N          63.9364   91.6062   12.2519 N.ar    1  UNL1       -0.1242
     33 N          65.0491   91.9327   13.2034 N.ar    1  UNL1       -0.1830
     34 O          63.0279   91.4422    9.8234 O.3     1  UNL1       -0.4631
     35 C          62.2372   90.1797    9.9990 C.3     1  UNL1        0.1676
     36 C          62.7990   89.1906   10.9766 C.3     1  UNL1        0.0436
     37 C          62.2516   87.8506   11.3705 C.3     1  UNL1        0.0037
     38 C          61.0072   87.1689   10.8837 C.3     1  UNL1        0.0001
     39 C          60.0030   87.6588    9.8831 C.3     1  UNL1        0.0001
     40 C          59.9950   88.9514    9.1220 C.3     1  UNL1        0.0037
     41 C          60.9893   90.0733    9.1735 C.3     1  UNL1        0.0436
@<TRIPOS>BOND
     1    10    11    2
     2    11    12   am
     3    12    16    1
     4    16    17    1
     5    17    18    1
     6    18    19    1
     7    19    20    1
     8    20    21    1
     9    21    22    1
    10    22    23    1
    11    11    13   am
    12    13     1    1
    13     1     2   ar
    14     2     3   ar
    15     3     4   ar
    16     4     5   ar
    17     5     6   ar
    18     6    24    1
    19    24    25    1
    20    25    26   ar
    21    26    27   ar
    22    27    28   ar
    23    28    29   ar
    24    29    30   ar
    25    30    31   ar
    26    31    34    1
    27    34    35    1
    28    35    36    1
    29    36    37    1
    30    37    38    1
    31    38    39    1
    32    39    40    1
    33    40    41    1
    34    31    32   ar
    35    32    33   ar
    36     6     7   ar
    37     7     8   ar
    38     8     9   ar
    39    23    18    1
    40     9     1   ar
    41     8     3   ar
    42    33    25   ar
    43    33    28   ar
    44    41    35    1
    45    12    14    1
    46    13    15    1
@<TRIPOS>MOLECULE
*****
 41 46 0 0 0
SMALL
GASTEIGER

@<TRIPOS>ATOM
      1 C          60.1665   88.8413    8.9942 C.ar    1  UNL1        0.1667
      2 N          60.3399   87.4341    8.5048 N.ar    1  UNL1       -0.2239
      3 C          61.1922   86.6999    9.4971 C.ar    1  UNL1        0.0893
      4 C          61.6921   85.2863    9.5390 C.ar    1  UNL1        0.0202
      5 C          62.5454   84.8262   10.6836 C.ar    1  UNL1        0.0081
      6 C          62.8988   85.7797   11.7863 C.ar    1  UNL1        0.0329
      7 C          62.3988   87.1933   11.7444 C.ar    1  UNL1        0.0146
      8 C          61.5455   87.6534   10.5998 C.ar    1  UNL1        0.0502
      9 S          60.9116   88.9768   10.2890 S.2     1  UNL1       -0.0513
     10 O          60.4202   89.2274    6.0300 O.2     1  UNL1       -0.2524
     11 C          59.5120   90.1161    6.8271 C.2     1  UNL1        0.3059
     12 N          58.7307   91.1979    6.1421 N.am    1  UNL1       -0.2872
     13 N          59.3852   89.9231    8.3092 N.am    1  UNL1       -0.2485
     14 H          58.1346   91.7812    6.6652 H       1  UNL1        0.1510
     15 H          58.7891   90.5064    8.8324 H       1  UNL1        0.1583
     16 C          58.8576   91.3909    4.6599 C.3     1  UNL1        0.1082
     17 C          59.3507   92.6978    4.1133 C.3     1  UNL1        0.0938
     18 N          60.1695   92.7242    2.8568 N.3     1  UNL1       -0.2670
     19 C          61.6183   92.3376    2.8975 C.3     1  UNL1        0.1047
     20 C          62.4371   92.3639    1.6410 C.3     1  UNL1        0.1595
     21 O          61.8072   92.7768    0.3438 O.3     1  UNL1       -0.3508
     22 C          60.3585   93.1634    0.3031 C.3     1  UNL1        0.1595
     23 C          59.5396   93.1371    1.5596 C.3     1  UNL1        0.1047
     24 S          63.7521   85.3196   12.9309 S.3     1  UNL1       -0.0470
     25 C          63.4104   85.7286   14.3330 C.ar    1  UNL1        0.2172
     26 N          62.9705   84.8125   15.4363 N.ar    1  UNL1       -0.1200
     27 N          62.7368   85.6433   16.6632 N.ar    1  UNL1       -0.1264
     28 C          63.0322   87.0729   16.3180 C.ar    1  UNL1        0.1874
     29 C          62.9759   88.3334   17.1291 C.ar    1  UNL1        0.0455
     30 C          63.3359   89.6467   16.5001 C.ar    1  UNL1        0.0624
     31 C          63.7522   89.6995   15.0600 C.ar    1  UNL1        0.2423
     32 N          63.8085   88.4389   14.2489 N.ar    1  UNL1       -0.1242
     33 N          63.4485   87.1256   14.8779 N.ar    1  UNL1       -0.1830
     34 O          64.1122   91.0127   14.4310 O.3     1  UNL1       -0.4631
     35 C          65.4844   91.5864   14.6256 C.3     1  UNL1        0.1676
     36 C          65.7317   92.2475   15.9491 C.3     1  UNL1        0.0436
     37 C          66.9836   92.9087   16.4450 C.3     1  UNL1        0.0037
     38 C          68.2973   93.0721   15.7396 C.3     1  UNL1        0.0001
     39 C          68.6836   92.6146   14.3643 C.3     1  UNL1        0.0001
     40 C          67.8516   91.8808   13.3547 C.3     1  UNL1        0.0037
     41 C          66.4279   91.4232   13.4710 C.3     1  UNL1        0.0436
@<TRIPOS>BOND
     1    10    11    2
     2    11    12   am
     3    12    16    1
     4    16    17    1
     5    17    18    1
     6    18    19    1
     7    19    20    1
     8    20    21    1
     9    21    22    1
    10    22    23    1
    11    11    13   am
    12    13     1    1
    13     1     2   ar
    14     2     3   ar
    15     3     4   ar
    16     4     5   ar
    17     5     6   ar
    18     6    24    1
    19    24    25    1
    20    25    26   ar
    21    26    27   ar
    22    27    28   ar
    23    28    29   ar
    24    29    30   ar
    25    30    31   ar
    26    31    34    1
    27    34    35    1
    28    35    36    1
    29    36    37    1
    30    37    38    1
    31    38    39    1
    32    39    40    1
    33    40    41    1
    34    31    32   ar
    35    32    33   ar
    36     6     7   ar
    37     7     8   ar
    38     8     9   ar
    39    23    18    1
    40     9     1   ar
    41     8     3   ar
    42    33    25   ar
    43    33    28   ar
    44    41    35    1
    45    12    14    1
    46    13    15    1
