@<TRIPOS>MOLECULE
*****
 59 64 0 0 0
SMALL
GASTEIGER

@<TRIPOS>ATOM
      1 C          61.9832   89.5051    8.8871 C.ar    1  UNL1        0.1663
      2 C          62.2592   90.0008   10.2757 C.ar    1  UNL1        0.0614
      3 C          62.4640   88.8078   11.1617 C.ar    1  UNL1        0.1250
      4 C          62.7078   89.5870   12.4200 C.2     1  UNL1        0.2815
      5 O          62.5822   91.0024   11.9396 O.2     1  UNL1       -0.2668
      6 N          63.0039   89.7775   13.8781 N.am    1  UNL1       -0.1946
      7 C          63.3010   89.3466   15.2838 C.3     1  UNL1        0.1543
      8 C          63.5770   89.8423   16.6723 C.3     1  UNL1        0.0358
      9 C          63.5478   88.3686   16.3940 C.3     1  UNL1        0.0517
     10 C          63.7017   87.0128   17.0169 C.2     1  UNL1       -0.0154
     11 C          63.7359   85.5134   17.0446 C.2     1  UNL1        0.0451
     12 C          63.6446   84.1299   16.4724 C.1     1  UNL1       -0.0592
     13 C          63.4436   83.1013   15.3993 C.1     1  UNL1       -0.0564
     14 C          63.1676   82.6056   14.0107 C.2     1  UNL1        0.0539
     15 C          63.2331   81.1180   14.1919 C.3     1  UNL1        0.0486
     16 C          62.8644   82.7284   12.5468 C.1     1  UNL1       -0.1007
     17 C          62.5863   83.4486   11.2608 C.2     1  UNL1        0.0325
     18 C          62.3815   84.6416   10.3749 C.2     1  UNL1        0.1360
     19 N          62.1202   84.0006    9.0441 N.am    1  UNL1       -0.1373
     20 C          62.2854   86.1011   10.0424 C.2     1  UNL1        0.2807
     21 O          62.0125   86.2352    8.7270 O.2     1  UNL1       -0.2652
     22 N          62.3146   87.5747   10.3206 N.ar    1  UNL1       -0.2645
     23 C          62.0174   88.0057    8.9149 C.ar    1  UNL1        0.1207
     24 C          63.2668   90.8459   15.2560 C.2     1  UNL1        0.2800
     25 O          62.4636   91.5968   16.2764 O.2     1  UNL1       -0.2699
     26 N          64.0358   91.5944   14.2080 N.am    1  UNL1       -0.0616
     27 S          65.4772   91.9395   14.4385 S.O2    1  UNL1        0.0724
     28 O          65.1283   92.4959   15.7871 O.2     1  UNL1       -0.1529
     29 O          65.8261   91.3830   13.0899 O.2     1  UNL1       -0.1529
     30 C          66.9187   92.2845   14.6691 C.3     1  UNL1        0.1307
     31 C          67.4836   91.9594   13.3182 C.3     1  UNL1        0.0256
     32 C          68.1639   92.7424   15.3689 C.3     1  UNL1        0.0256
     33 C          66.8543   92.7294   16.1002 C.3     1  UNL1        0.0256
     34 C          62.4101   82.3116   10.2984 C.3     1  UNL1        0.0356
     35 C          63.2133   81.0559   10.4659 C.3     1  UNL1        0.0057
     36 C          61.8563   84.8544    7.8394 C.2     1  UNL1        0.4256
     37 O          60.8069   85.6807    7.6432 O.2     1  UNL1       -0.2242
     38 O          62.8166   84.8429    6.6871 O.3     1  UNL1       -0.4320
     39 C          62.3155   84.5921    5.2957 C.3     1  UNL1        0.2240
     40 C          61.0892   83.9345    5.8558 C.3     1  UNL1        0.0527
     41 C          63.5418   85.2496    4.7355 C.3     1  UNL1        0.0527
     42 C          61.8145   84.3413    3.9042 C.3     1  UNL1        0.4306
     43 F          61.3134   84.0904    2.5128 F       1  UNL1       -0.1665
     44 F          62.6837   85.4508    3.3912 F       1  UNL1       -0.1665
     45 F          60.9452   83.2317    4.4173 F       1  UNL1       -0.1665
     46 O          61.7194   90.3588    7.6824 O.3     1  UNL1       -0.4345
     47 C          59.7802   92.3083    3.0252 C.ar    1  UNL1        0.1660
     48 C          58.6300   91.6210    3.6995 C.ar    1  UNL1        0.0394
     49 C          58.8273   90.9617    5.0323 C.ar    1  UNL1        0.0092
     50 C          57.6771   90.2744    5.7066 C.ar    1  UNL1        0.0210
     51 C          57.8743   89.6152    7.0395 C.ar    1  UNL1        0.1021
     52 N          59.2217   89.6433    7.6981 N.ar    1  UNL1       -0.2098
     53 C          60.3720   90.3307    7.0238 C.ar    1  UNL1        0.2297
     54 C          60.1747   90.9899    5.6909 C.ar    1  UNL1        0.0561
     55 C          61.3249   91.6772    5.0166 C.ar    1  UNL1        0.0374
     56 C          61.1277   92.3364    3.6837 C.ar    1  UNL1        0.1740
     57 F          62.2778   93.0237    3.0095 F       1  UNL1       -0.2010
     58 C          60.2811   92.4291    0.4788 C.3     1  UNL1        0.2526
     59 O          59.5830   92.9675    1.6923 O.3     1  UNL1       -0.4692
@<TRIPOS>BOND
     1    58    59    1
     2    59    47    1
     3    47    48   ar
     4    48    49   ar
     5    49    50   ar
     6    50    51   ar
     7    51    52   ar
     8    52    53   ar
     9    53    46    1
    10     1    46    1
    11     1     2   ar
    12     3     2   ar
    13     3     4    1
    14     4     5    2
    15     4     6   am
    16     6     7    1
    17     7    24    1
    18    24    25    2
    19    24    26   am
    20    26    27    1
    21    27    28    2
    22    27    29    2
    23    27    30    1
    24    30    31    1
    25    30    32    1
    26    32    33    1
    27     7     8    1
    28     9     8    1
    29     9    10    1
    30    10    11    2
    31    11    12    1
    32    12    13    3
    33    13    14    1
    34    14    15    1
    35    14    16    2
    36    16    17    2
    37    17    34    1
    38    34    35    1
    39    17    18    1
    40    18    19    2
    41    19    36    1
    42    36    37    2
    43    36    38    1
    44    38    39    1
    45    39    40    1
    46    39    41    1
    47    39    42    1
    48    42    43    1
    49    42    44    1
    50    42    45    1
    51    18    20    1
    52    20    21    2
    53    20    22   am
    54    22    23   ar
    55    53    54   ar
    56    54    55   ar
    57    55    56   ar
    58    56    57    1
    59    56    47   ar
    60    54    49   ar
    61    23     1   ar
    62    22     3   ar
    63     9     7    1
    64    33    30    1
@<TRIPOS>MOLECULE
*****
 59 64 0 0 0
SMALL
GASTEIGER

@<TRIPOS>ATOM
      1 C          62.1995   89.9131   11.4195 C.ar    1  UNL1        0.1663
      2 C          63.2949   90.9349   11.3424 C.ar    1  UNL1        0.0614
      3 C          63.3123   91.4918    9.9496 C.ar    1  UNL1        0.1250
      4 C          64.4540   92.4386   10.1735 C.2     1  UNL1        0.2815
      5 O          64.7917   92.1851   11.6129 O.2     1  UNL1       -0.2668
      6 N          65.4553   93.4907    9.7988 N.am    1  UNL1       -0.1946
      7 C          66.1430   94.4664    8.8904 C.3     1  UNL1        0.1543
      8 C          67.2384   95.4882    8.8133 C.3     1  UNL1        0.0358
      9 C          66.3982   95.1968    7.6054 C.3     1  UNL1        0.0517
     10 C          66.1769   95.5556    6.1659 C.2     1  UNL1       -0.0154
     11 C          65.5172   95.4809    4.8208 C.2     1  UNL1        0.0451
     12 C          64.5333   94.9855    3.8027 C.1     1  UNL1       -0.0592
     13 C          63.3952   94.1551    3.2877 C.1     1  UNL1       -0.0564
     14 C          62.2998   93.1333    3.3648 C.2     1  UNL1        0.0539
     15 C          61.7417   93.1688    1.9729 C.3     1  UNL1        0.0486
     16 C          61.4364   92.0967    4.0207 C.1     1  UNL1       -0.1007
     17 C          60.9544   91.2247    5.1419 C.2     1  UNL1        0.0325
     18 C          60.9371   90.6679    6.5346 C.2     1  UNL1        0.1360
     19 N          59.8123   89.6782    6.4608 N.am    1  UNL1       -0.1373
     20 C          61.3874   90.5227    7.9580 C.2     1  UNL1        0.2807
     21 O          60.6224   89.5928    8.5684 O.2     1  UNL1       -0.2652
     22 N          62.2276   90.8141    9.1659 N.ar    1  UNL1       -0.2645
     23 C          61.5398   89.8384   10.0744 C.ar    1  UNL1        0.1207
     24 C          66.8026   94.5411   10.2355 C.2     1  UNL1        0.2800
     25 O          66.6996   95.7947   11.0528 O.2     1  UNL1       -0.2699
     26 N          67.5653   93.3622   10.7633 N.am    1  UNL1       -0.0616
     27 S          67.5433   93.0505   12.2304 S.O2    1  UNL1        0.0724
     28 O          66.6129   94.2042   12.4616 O.2     1  UNL1       -0.1529
     29 O          68.4737   91.8968   11.9992 O.2     1  UNL1       -0.1529
     30 C          67.5212   92.7388   13.6975 C.3     1  UNL1        0.1307
     31 C          66.5477   93.7776   14.1699 C.3     1  UNL1        0.0256
     32 C          67.8373   92.0663   15.0005 C.3     1  UNL1        0.0256
     33 C          68.4871   91.5918   13.7346 C.3     1  UNL1        0.0256
     34 C          59.8368   90.4665    4.4889 C.3     1  UNL1        0.0356
     35 C          58.4640   91.0667    4.4186 C.3     1  UNL1        0.0057
     36 C          59.4417   88.8725    7.6706 C.2     1  UNL1        0.4256
     37 O          59.2027   89.3383    8.9149 O.2     1  UNL1       -0.2242
     38 O          59.3023   87.3827    7.5657 O.3     1  UNL1       -0.4320
     39 C          60.5008   86.5018    7.7593 C.3     1  UNL1        0.2240
     40 C          60.4035   86.6956    9.2435 C.3     1  UNL1        0.0527
     41 C          60.5982   86.3081    6.2751 C.3     1  UNL1        0.0527
     42 C          61.6994   85.6209    7.9529 C.3     1  UNL1        0.4306
     43 F          62.8980   84.7400    8.1465 F       1  UNL1       -0.1665
     44 F          62.2230   86.5627    8.9963 F       1  UNL1       -0.1665
     45 F          61.1758   84.6791    6.9094 F       1  UNL1       -0.1665
     46 O          61.8288   89.1075   12.6292 O.3     1  UNL1       -0.4345
     47 C          63.8042   84.0728   12.6534 C.ar    1  UNL1        0.1660
     48 C          64.5673   84.8242   13.7036 C.ar    1  UNL1        0.0394
     49 C          64.2643   86.2707   13.9601 C.ar    1  UNL1        0.0092
     50 C          65.0275   87.0221   15.0103 C.ar    1  UNL1        0.0210
     51 C          64.7244   88.4686   15.2669 C.ar    1  UNL1        0.1021
     52 N          63.6582   89.1637   14.4732 N.ar    1  UNL1       -0.2098
     53 C          62.8950   88.4124   13.4229 C.ar    1  UNL1        0.2297
     54 C          63.1980   86.9659   13.1663 C.ar    1  UNL1        0.0561
     55 C          62.4349   86.2145   12.1161 C.ar    1  UNL1        0.0374
     56 C          62.7379   84.7680   11.8596 C.ar    1  UNL1        0.1740
     57 F          61.9747   84.0166   10.8094 F       1  UNL1       -0.2010
     58 C          63.1744   81.5643   12.8986 C.3     1  UNL1        0.2526
     59 O          64.1072   82.6263   12.3968 O.3     1  UNL1       -0.4692
@<TRIPOS>BOND
     1    58    59    1
     2    59    47    1
     3    47    48   ar
     4    48    49   ar
     5    49    50   ar
     6    50    51   ar
     7    51    52   ar
     8    52    53   ar
     9    53    46    1
    10     1    46    1
    11     1     2   ar
    12     3     2   ar
    13     3     4    1
    14     4     5    2
    15     4     6   am
    16     6     7    1
    17     7    24    1
    18    24    25    2
    19    24    26   am
    20    26    27    1
    21    27    28    2
    22    27    29    2
    23    27    30    1
    24    30    31    1
    25    30    32    1
    26    32    33    1
    27     7     8    1
    28     9     8    1
    29     9    10    1
    30    10    11    2
    31    11    12    1
    32    12    13    3
    33    13    14    1
    34    14    15    1
    35    14    16    2
    36    16    17    2
    37    17    34    1
    38    34    35    1
    39    17    18    1
    40    18    19    2
    41    19    36    1
    42    36    37    2
    43    36    38    1
    44    38    39    1
    45    39    40    1
    46    39    41    1
    47    39    42    1
    48    42    43    1
    49    42    44    1
    50    42    45    1
    51    18    20    1
    52    20    21    2
    53    20    22   am
    54    22    23   ar
    55    53    54   ar
    56    54    55   ar
    57    55    56   ar
    58    56    57    1
    59    56    47   ar
    60    54    49   ar
    61    23     1   ar
    62    22     3   ar
    63     9     7    1
    64    33    30    1
@<TRIPOS>MOLECULE
*****
 59 64 0 0 0
SMALL
GASTEIGER

@<TRIPOS>ATOM
      1 C          63.5007   90.8854   12.0965 C.ar    1  UNL1        0.1663
      2 C          64.3684   92.0094   11.6131 C.ar    1  UNL1        0.0614
      3 C          64.0307   92.2704   10.1751 C.ar    1  UNL1        0.1250
      4 C          65.0119   93.3888    9.9840 C.2     1  UNL1        0.2815
      5 O          65.6489   93.4796   11.3391 O.2     1  UNL1       -0.2668
      6 N          65.7282   94.4694    9.2296 N.am    1  UNL1       -0.1946
      7 C          66.0558   95.3253    8.0421 C.3     1  UNL1        0.1543
      8 C          66.9235   96.4493    7.5588 C.3     1  UNL1        0.0358
      9 C          65.9379   95.8087    6.6270 C.3     1  UNL1        0.0517
     10 C          65.3951   95.8358    5.2290 C.2     1  UNL1       -0.0154
     11 C          64.5211   95.4021    4.0897 C.2     1  UNL1        0.0451
     12 C          63.4671   94.5824    3.4062 C.1     1  UNL1       -0.0592
     13 C          62.4152   93.5186    3.2966 C.1     1  UNL1       -0.0564
     14 C          61.5475   92.3946    3.7800 C.2     1  UNL1        0.0539
     15 C          60.7440   92.0721    2.5550 C.3     1  UNL1        0.0486
     16 C          61.0139   91.4047    4.7726 C.1     1  UNL1       -0.1007
     17 C          60.9067   90.7201    6.1029 C.2     1  UNL1        0.0325
     18 C          61.2444   90.4591    7.5409 C.2     1  UNL1        0.1360
     19 N          60.3149   89.3318    7.8799 N.am    1  UNL1       -0.1373
     20 C          61.9687   90.6670    8.8379 C.2     1  UNL1        0.2807
     21 O          61.5032   89.7847    9.7475 O.2     1  UNL1       -0.2652
     22 N          62.9542   91.3077    9.7696 N.ar    1  UNL1       -0.2645
     23 C          62.6267   90.4517   10.9572 C.ar    1  UNL1        0.1207
     24 C          66.9297   95.7591    9.1814 C.2     1  UNL1        0.2800
     25 O          66.4766   96.8557   10.0990 O.2     1  UNL1       -0.2699
     26 N          68.2569   95.0961    9.4032 N.am    1  UNL1       -0.0616
     27 S          68.4000   93.6171    9.1984 S.O2    1  UNL1        0.0724
     28 O          68.4332   93.4145   10.6843 O.2     1  UNL1       -0.1529
     29 O          68.3667   93.8197    7.7124 O.2     1  UNL1       -0.1529
     30 C          68.5431   92.1380    8.9936 C.3     1  UNL1        0.1307
     31 C          69.4661   92.1269    7.8113 C.3     1  UNL1        0.0256
     32 C          68.3655   90.6628    9.1994 C.3     1  UNL1        0.0256
     33 C          67.6697   91.6355   10.1047 C.3     1  UNL1        0.0256
     34 C          59.8367   89.7012    5.8440 C.3     1  UNL1        0.0356
     35 C          58.4444   90.1451    5.5057 C.3     1  UNL1        0.0057
     36 C          60.3202   88.7446    9.2602 C.2     1  UNL1        0.4256
     37 O          59.7254   89.2513   10.3610 O.2     1  UNL1       -0.2242
     38 O          61.0431   87.4572    9.5248 O.3     1  UNL1       -0.4320
     39 C          61.1466   86.4198    8.4463 C.3     1  UNL1        0.2240
     40 C          62.6201   86.3020    8.7010 C.3     1  UNL1        0.0527
     41 C          59.6732   86.5376    8.1915 C.3     1  UNL1        0.0527
     42 C          61.2501   85.3824    7.3678 C.3     1  UNL1        0.4306
     43 F          61.3536   84.3450    6.2892 F       1  UNL1       -0.1665
     44 F          59.7688   85.4644    7.1467 F       1  UNL1       -0.1665
     45 F          62.7315   85.3004    7.5888 F       1  UNL1       -0.1665
     46 O          63.5060   90.2982   13.4767 O.3     1  UNL1       -0.4345
     47 C          68.2346   92.5197   14.8751 C.ar    1  UNL1        0.1660
     48 C          67.2670   92.8820   15.9625 C.ar    1  UNL1        0.0394
     49 C          65.8430   92.4172   15.8848 C.ar    1  UNL1        0.0092
     50 C          64.8754   92.7794   16.9722 C.ar    1  UNL1        0.0210
     51 C          63.4513   92.3146   16.8945 C.ar    1  UNL1        0.1021
     52 N          62.9948   91.4876   15.7293 N.ar    1  UNL1       -0.2098
     53 C          63.9625   91.1253   14.6418 C.ar    1  UNL1        0.2297
     54 C          65.3865   91.5901   14.7196 C.ar    1  UNL1        0.0561
     55 C          66.3541   91.2278   13.6321 C.ar    1  UNL1        0.0374
     56 C          67.7782   91.6926   13.7099 C.ar    1  UNL1        0.1740
     57 F          68.7458   91.3303   12.6225 F       1  UNL1       -0.2010
     58 C          70.0436   94.0633   15.9212 C.3     1  UNL1        0.2526
     59 O          69.6587   92.9845   14.9529 O.3     1  UNL1       -0.4692
@<TRIPOS>BOND
     1    58    59    1
     2    59    47    1
     3    47    48   ar
     4    48    49   ar
     5    49    50   ar
     6    50    51   ar
     7    51    52   ar
     8    52    53   ar
     9    53    46    1
    10     1    46    1
    11     1     2   ar
    12     3     2   ar
    13     3     4    1
    14     4     5    2
    15     4     6   am
    16     6     7    1
    17     7    24    1
    18    24    25    2
    19    24    26   am
    20    26    27    1
    21    27    28    2
    22    27    29    2
    23    27    30    1
    24    30    31    1
    25    30    32    1
    26    32    33    1
    27     7     8    1
    28     9     8    1
    29     9    10    1
    30    10    11    2
    31    11    12    1
    32    12    13    3
    33    13    14    1
    34    14    15    1
    35    14    16    2
    36    16    17    2
    37    17    34    1
    38    34    35    1
    39    17    18    1
    40    18    19    2
    41    19    36    1
    42    36    37    2
    43    36    38    1
    44    38    39    1
    45    39    40    1
    46    39    41    1
    47    39    42    1
    48    42    43    1
    49    42    44    1
    50    42    45    1
    51    18    20    1
    52    20    21    2
    53    20    22   am
    54    22    23   ar
    55    53    54   ar
    56    54    55   ar
    57    55    56   ar
    58    56    57    1
    59    56    47   ar
    60    54    49   ar
    61    23     1   ar
    62    22     3   ar
    63     9     7    1
    64    33    30    1
@<TRIPOS>MOLECULE
*****
 59 64 0 0 0
SMALL
GASTEIGER

@<TRIPOS>ATOM
      1 C          63.8040   89.9478   14.2758 C.ar    1  UNL1        0.1663
      2 C          64.2223   88.5477   14.6144 C.ar    1  UNL1        0.0614
      3 C          63.8289   87.6575   13.4729 C.ar    1  UNL1        0.1250
      4 C          64.3523   86.3879   14.0765 C.2     1  UNL1        0.2815
      5 O          64.9019   86.8690   15.3868 O.2     1  UNL1       -0.2668
      6 N          64.6472   84.9184   14.1353 N.am    1  UNL1       -0.1946
      7 C          64.6625   83.5029   13.6391 C.3     1  UNL1        0.1543
      8 C          65.0808   82.1028   13.9777 C.3     1  UNL1        0.0358
      9 C          64.3957   82.3863   12.6737 C.3     1  UNL1        0.0517
     10 C          63.8929   81.7616   11.4061 C.2     1  UNL1       -0.0154
     11 C          63.2410   81.7368   10.0555 C.2     1  UNL1        0.0451
     12 C          62.5526   82.3162    8.8553 C.1     1  UNL1       -0.0592
     13 C          61.9470   83.3997    8.0130 C.1     1  UNL1       -0.0564
     14 C          61.5287   84.7998    7.6745 C.2     1  UNL1        0.0539
     15 C          60.9042   84.6204    6.3225 C.3     1  UNL1        0.0486
     16 C          61.3701   86.2746    7.8981 C.1     1  UNL1       -0.1007
     17 C          61.4986   87.5689    8.6451 C.2     1  UNL1        0.0325
     18 C          61.8921   88.4590    9.7866 C.2     1  UNL1        0.1360
     19 N          61.4186   89.8012    9.3129 N.am    1  UNL1       -0.1373
     20 C          62.4824   88.7910   11.1250 C.2     1  UNL1        0.2807
     21 O          62.3502   90.1160   11.3472 O.2     1  UNL1       -0.2652
     22 N          63.1674   88.5075   12.4289 N.ar    1  UNL1       -0.2645
     23 C          63.1521   89.9230   12.9252 C.ar    1  UNL1        0.1207
     24 C          65.3145   83.5278   14.9898 C.2     1  UNL1        0.2800
     25 O          66.8044   83.6609   15.1011 O.2     1  UNL1       -0.2699
     26 N          64.4765   83.4194   16.2292 N.am    1  UNL1       -0.0616
     27 S          63.3688   84.4008   16.4738 S.O2    1  UNL1        0.0724
     28 O          62.4290   83.5363   15.6868 O.2     1  UNL1       -0.1529
     29 O          64.3087   85.2654   17.2608 O.2     1  UNL1       -0.1529
     30 C          62.2612   85.3823   16.7184 C.3     1  UNL1        0.1307
     31 C          61.3046   84.9697   15.6393 C.3     1  UNL1        0.0256
     32 C          61.4858   86.5070   17.3379 C.3     1  UNL1        0.0256
     33 C          62.8332   86.1357   17.8825 C.3     1  UNL1        0.0256
     34 C          60.8616   88.5410    7.6968 C.3     1  UNL1        0.0356
     35 C          59.4388   88.3442    7.2646 C.3     1  UNL1        0.0057
     36 C          61.6174   91.0133   10.1739 C.2     1  UNL1        0.4256
     37 O          62.5936   91.9389   10.0609 O.2     1  UNL1       -0.2242
     38 O          60.6703   91.2952   11.3023 O.3     1  UNL1       -0.4320
     39 C          59.6356   90.2788   11.6848 C.3     1  UNL1        0.2240
     40 C          59.0123   90.4019   10.3260 C.3     1  UNL1        0.0527
     41 C          60.2588   90.1556   13.0435 C.3     1  UNL1        0.0527
     42 C          58.6009   89.2623   12.0672 C.3     1  UNL1        0.4306
     43 F          57.5662   88.2458   12.4497 F       1  UNL1       -0.1665
     44 F          57.5744   90.3500   12.1810 F       1  UNL1       -0.1665
     45 F          59.6275   88.1745   11.9535 F       1  UNL1       -0.1665
     46 O          64.0028   91.1599   15.1367 O.3     1  UNL1       -0.4345
     47 C          67.0629   93.1414   11.1418 C.ar    1  UNL1        0.1660
     48 C          67.7783   93.4735   12.4176 C.ar    1  UNL1        0.0394
     49 C          67.1921   93.0612   13.7354 C.ar    1  UNL1        0.0092
     50 C          67.9075   93.3932   15.0113 C.ar    1  UNL1        0.0210
     51 C          67.3213   92.9809   16.3290 C.ar    1  UNL1        0.1021
     52 N          66.0198   92.2365   16.3708 N.ar    1  UNL1       -0.2098
     53 C          65.3043   91.9043   15.0949 C.ar    1  UNL1        0.2297
     54 C          65.8905   92.3167   13.7772 C.ar    1  UNL1        0.0561
     55 C          65.1751   91.9846   12.5013 C.ar    1  UNL1        0.0374
     56 C          65.7613   92.3970   11.1835 C.ar    1  UNL1        0.1740
     57 F          65.0459   92.0649    9.9076 F       1  UNL1       -0.2010
     58 C          68.6496   92.6708    9.1391 C.3     1  UNL1        0.2526
     59 O          67.6491   93.5538    9.8240 O.3     1  UNL1       -0.4692
@<TRIPOS>BOND
     1    58    59    1
     2    59    47    1
     3    47    48   ar
     4    48    49   ar
     5    49    50   ar
     6    50    51   ar
     7    51    52   ar
     8    52    53   ar
     9    53    46    1
    10     1    46    1
    11     1     2   ar
    12     3     2   ar
    13     3     4    1
    14     4     5    2
    15     4     6   am
    16     6     7    1
    17     7    24    1
    18    24    25    2
    19    24    26   am
    20    26    27    1
    21    27    28    2
    22    27    29    2
    23    27    30    1
    24    30    31    1
    25    30    32    1
    26    32    33    1
    27     7     8    1
    28     9     8    1
    29     9    10    1
    30    10    11    2
    31    11    12    1
    32    12    13    3
    33    13    14    1
    34    14    15    1
    35    14    16    2
    36    16    17    2
    37    17    34    1
    38    34    35    1
    39    17    18    1
    40    18    19    2
    41    19    36    1
    42    36    37    2
    43    36    38    1
    44    38    39    1
    45    39    40    1
    46    39    41    1
    47    39    42    1
    48    42    43    1
    49    42    44    1
    50    42    45    1
    51    18    20    1
    52    20    21    2
    53    20    22   am
    54    22    23   ar
    55    53    54   ar
    56    54    55   ar
    57    55    56   ar
    58    56    57    1
    59    56    47   ar
    60    54    49   ar
    61    23     1   ar
    62    22     3   ar
    63     9     7    1
    64    33    30    1
