@<TRIPOS>MOLECULE
*****
 24 27 0 0 0
SMALL
GASTEIGER

@<TRIPOS>ATOM
      1 C          63.9662   88.3478   15.2086 C.3     1  UNL1        0.0288
      2 C          64.1174   87.7901   13.8244 C.3     1  UNL1        0.0261
      3 C          63.8378   86.3393   13.5656 C.3     1  UNL1        0.0953
      4 N          63.4070   85.4461   14.6911 N.am    1  UNL1       -0.2638
      5 C          63.1274   83.9953   14.4324 C.2     1  UNL1        0.3109
      6 O          62.6966   83.1021   15.5579 O.2     1  UNL1       -0.2520
      7 N          63.2785   83.4377   13.0481 N.am    1  UNL1       -0.2434
      8 C          63.7092   84.3308   11.9226 C.3     1  UNL1        0.1001
      9 C          63.8604   83.7731   10.5384 C.3     1  UNL1        0.0267
     10 C          63.5808   82.3223   10.2796 C.3     1  UNL1        0.0294
     11 C          63.1500   81.4291   11.4051 C.ar    1  UNL1       -0.0084
     12 C          62.8704   79.9784   11.1464 C.ar    1  UNL1       -0.0030
     13 C          62.4397   79.0852   12.2719 C.ar    1  UNL1       -0.0002
     14 C          62.2886   79.6429   13.6561 C.ar    1  UNL1        0.0013
     15 C          62.5682   81.0937   13.9149 C.ar    1  UNL1        0.0146
     16 C          62.9989   81.9868   12.7894 C.ar    1  UNL1        0.0513
     17 C          63.2559   86.0038   16.0754 C.3     1  UNL1        0.0953
     18 C          63.5355   87.4547   16.3341 C.3     1  UNL1        0.0261
     19 C          66.1395   93.1560   15.0121 C.3     1  UNL1        0.1537
     20 N          65.2448   92.0086   15.3771 N.ar    1  UNL1       -0.2477
     21 C          65.3303   90.6149   14.8291 C.ar    1  UNL1        0.0924
     22 C          64.2458   89.7986   15.4674 C.ar    1  UNL1        0.0172
     23 C          63.4901   90.6877   16.4099 C.ar    1  UNL1        0.1173
     24 N          64.1075   92.0536   16.3541 N.ar    1  UNL1       -0.1679
@<TRIPOS>BOND
     1    19    20    1
     2    20    21   ar
     3    21    22   ar
     4    22     1    1
     5     1     2    1
     6     2     3    1
     7     3     4    1
     8     4     5   am
     9     5     6    2
    10     5     7   am
    11     7     8    1
    12     8     9    1
    13     9    10    1
    14    10    11    1
    15    11    12   ar
    16    12    13   ar
    17    13    14   ar
    18    14    15   ar
    19    15    16   ar
    20     4    17    1
    21    17    18    1
    22    22    23   ar
    23    23    24   ar
    24    24    20   ar
    25    18     1    1
    26    16     7    1
    27    16    11   ar
@<TRIPOS>MOLECULE
*****
 24 27 0 0 0
SMALL
GASTEIGER

@<TRIPOS>ATOM
      1 C          59.9201   88.9854    7.5925 C.3     1  UNL1        0.0288
      2 C          60.7056   89.6114    8.7066 C.3     1  UNL1        0.0261
      3 C          61.3483   88.7460    9.7496 C.3     1  UNL1        0.0953
      4 N          61.2055   87.2544    9.6785 N.am    1  UNL1       -0.2638
      5 C          61.8483   86.3890   10.7215 C.2     1  UNL1        0.3109
      6 O          61.7055   84.8974   10.6505 O.2     1  UNL1       -0.2520
      7 N          62.6338   87.0150   11.8356 N.am    1  UNL1       -0.2434
      8 C          62.7765   88.5064   11.9066 C.3     1  UNL1        0.1001
      9 C          63.5621   89.1325   13.0207 C.3     1  UNL1        0.0267
     10 C          64.2048   88.2670   14.0636 C.3     1  UNL1        0.0294
     11 C          64.0620   86.7755   13.9926 C.ar    1  UNL1       -0.0084
     12 C          64.7048   85.9100   15.0356 C.ar    1  UNL1       -0.0030
     13 C          64.5620   84.4185   14.9645 C.ar    1  UNL1       -0.0002
     14 C          63.7765   83.7925   13.8505 C.ar    1  UNL1        0.0013
     15 C          63.1337   84.6580   12.8075 C.ar    1  UNL1        0.0146
     16 C          63.2765   86.1494   12.8786 C.ar    1  UNL1        0.0513
     17 C          60.4200   86.6284    8.5645 C.3     1  UNL1        0.0953
     18 C          59.7773   87.4939    7.5215 C.3     1  UNL1        0.0261
     19 C          59.2415   92.3772    3.6031 C.3     1  UNL1        0.1537
     20 N          58.9654   91.4099    4.7158 N.ar    1  UNL1       -0.2477
     21 C          59.9952   90.7272    5.5664 C.ar    1  UNL1        0.0924
     22 C          59.2773   89.8509    6.5496 C.ar    1  UNL1        0.0172
     23 C          57.8039   89.9919    6.3066 C.ar    1  UNL1        0.1173
     24 N          57.6111   90.9555    5.1733 N.ar    1  UNL1       -0.1679
@<TRIPOS>BOND
     1    19    20    1
     2    20    21   ar
     3    21    22   ar
     4    22     1    1
     5     1     2    1
     6     2     3    1
     7     3     4    1
     8     4     5   am
     9     5     6    2
    10     5     7   am
    11     7     8    1
    12     8     9    1
    13     9    10    1
    14    10    11    1
    15    11    12   ar
    16    12    13   ar
    17    13    14   ar
    18    14    15   ar
    19    15    16   ar
    20     4    17    1
    21    17    18    1
    22    22    23   ar
    23    23    24   ar
    24    24    20   ar
    25    18     1    1
    26    16     7    1
    27    16    11   ar
@<TRIPOS>MOLECULE
*****
 24 27 0 0 0
SMALL
GASTEIGER

@<TRIPOS>ATOM
      1 C          65.2620   91.6432   13.5889 C.3     1  UNL1        0.0288
      2 C          64.8698   90.1957   13.6199 C.3     1  UNL1        0.0261
      3 C          63.9280   89.6516   12.5870 C.3     1  UNL1        0.0953
      4 N          63.3783   90.5550   11.5231 N.am    1  UNL1       -0.2638
      5 C          62.4365   90.0109   10.4902 C.2     1  UNL1        0.3109
      6 O          61.8869   90.9143    9.4263 O.2     1  UNL1       -0.2520
      7 N          62.0444   88.5634   10.5211 N.am    1  UNL1       -0.2434
      8 C          62.5940   87.6600   11.5850 C.3     1  UNL1        0.1001
      9 C          62.2018   86.2125   11.6159 C.3     1  UNL1        0.0267
     10 C          61.2600   85.6684   10.5830 C.3     1  UNL1        0.0294
     11 C          60.7104   86.5718    9.5191 C.ar    1  UNL1       -0.0084
     12 C          59.7686   86.0276    8.4862 C.ar    1  UNL1       -0.0030
     13 C          59.2190   86.9310    7.4224 C.ar    1  UNL1       -0.0002
     14 C          59.6111   88.3785    7.3914 C.ar    1  UNL1        0.0013
     15 C          60.5529   88.9226    8.4243 C.ar    1  UNL1        0.0146
     16 C          61.1025   88.0193    9.4881 C.ar    1  UNL1        0.0513
     17 C          63.7705   92.0025   11.4921 C.3     1  UNL1        0.0953
     18 C          64.7123   92.5466   12.5251 C.3     1  UNL1        0.0261
     19 C          69.6004   93.5372   15.9280 C.3     1  UNL1        0.1537
     20 N          68.1979   93.0579   15.6970 N.ar    1  UNL1       -0.2477
     21 C          67.6389   92.5609   14.3968 C.ar    1  UNL1        0.0924
     22 C          66.2037   92.1874   14.6218 C.ar    1  UNL1        0.0172
     23 C          65.8757   92.4535   16.0611 C.ar    1  UNL1        0.1173
     24 N          67.1082   92.9915   16.7256 N.ar    1  UNL1       -0.1679
@<TRIPOS>BOND
     1    19    20    1
     2    20    21   ar
     3    21    22   ar
     4    22     1    1
     5     1     2    1
     6     2     3    1
     7     3     4    1
     8     4     5   am
     9     5     6    2
    10     5     7   am
    11     7     8    1
    12     8     9    1
    13     9    10    1
    14    10    11    1
    15    11    12   ar
    16    12    13   ar
    17    13    14   ar
    18    14    15   ar
    19    15    16   ar
    20     4    17    1
    21    17    18    1
    22    22    23   ar
    23    23    24   ar
    24    24    20   ar
    25    18     1    1
    26    16     7    1
    27    16    11   ar
@<TRIPOS>MOLECULE
*****
 24 27 0 0 0
SMALL
GASTEIGER

@<TRIPOS>ATOM
      1 C          55.9009   95.4323   -2.5268 C.3     1  UNL1        0.0288
      2 C          56.2412   94.7823   -1.2185 C.3     1  UNL1        0.0261
      3 C          57.6752   94.5357   -0.8541 C.3     1  UNL1        0.0953
      4 N          58.7690   94.9392   -1.7980 N.am    1  UNL1       -0.2638
      5 C          60.2030   94.6927   -1.4336 C.2     1  UNL1        0.3109
      6 O          61.2967   95.0962   -2.3775 O.2     1  UNL1       -0.2520
      7 N          60.5433   94.0427   -0.1253 N.am    1  UNL1       -0.2434
      8 C          59.4496   93.6392    0.8186 C.3     1  UNL1        0.1001
      9 C          59.7899   92.9891    2.1269 C.3     1  UNL1        0.0267
     10 C          61.2239   92.7426    2.4913 C.3     1  UNL1        0.0294
     11 C          62.3177   93.1461    1.5474 C.ar    1  UNL1       -0.0084
     12 C          63.7517   92.8996    1.9118 C.ar    1  UNL1       -0.0030
     13 C          64.8454   93.3031    0.9679 C.ar    1  UNL1       -0.0002
     14 C          64.5050   93.9531   -0.3404 C.ar    1  UNL1        0.0013
     15 C          63.0710   94.1997   -0.7048 C.ar    1  UNL1        0.0146
     16 C          61.9774   93.7962    0.2391 C.ar    1  UNL1        0.0513
     17 C          58.4287   95.5893   -3.1063 C.3     1  UNL1        0.0953
     18 C          56.9946   95.8358   -3.4707 C.3     1  UNL1        0.0261
     19 C          51.5323   96.4668   -5.3063 C.3     1  UNL1        0.1537
     20 N          52.4589   96.1543   -4.1688 N.ar    1  UNL1       -0.2477
     21 C          53.9455   95.9793   -4.2652 C.ar    1  UNL1        0.0924
     22 C          54.4669   95.6788   -2.8912 C.ar    1  UNL1        0.0172
     23 C          53.3025   95.6682   -1.9456 C.ar    1  UNL1        0.1173
     24 N          52.0615   95.9621   -2.7351 N.ar    1  UNL1       -0.1679
@<TRIPOS>BOND
     1    19    20    1
     2    20    21   ar
     3    21    22   ar
     4    22     1    1
     5     1     2    1
     6     2     3    1
     7     3     4    1
     8     4     5   am
     9     5     6    2
    10     5     7   am
    11     7     8    1
    12     8     9    1
    13     9    10    1
    14    10    11    1
    15    11    12   ar
    16    12    13   ar
    17    13    14   ar
    18    14    15   ar
    19    15    16   ar
    20     4    17    1
    21    17    18    1
    22    22    23   ar
    23    23    24   ar
    24    24    20   ar
    25    18     1    1
    26    16     7    1
    27    16    11   ar
@<TRIPOS>MOLECULE
*****
 24 27 0 0 0
SMALL
GASTEIGER

@<TRIPOS>ATOM
      1 C          55.4385   95.1360   -2.1921 C.3     1  UNL1        0.0288
      2 C          56.5390   96.0682   -1.7802 C.3     1  UNL1        0.0261
      3 C          57.7665   95.5288   -1.1078 C.3     1  UNL1        0.0953
      4 N          57.8935   94.0570   -0.8473 N.am    1  UNL1       -0.2638
      5 C          59.1211   93.5176   -0.1749 C.2     1  UNL1        0.3109
      6 O          59.2481   92.0458    0.0857 O.2     1  UNL1       -0.2520
      7 N          60.2216   94.4499    0.2370 N.am    1  UNL1       -0.2434
      8 C          60.0947   95.9216   -0.0235 C.3     1  UNL1        0.1001
      9 C          61.1952   96.8538    0.3884 C.3     1  UNL1        0.0267
     10 C          62.4227   96.3144    1.0608 C.3     1  UNL1        0.0294
     11 C          62.5497   94.8426    1.3213 C.ar    1  UNL1       -0.0084
     12 C          63.7772   94.3032    1.9937 C.ar    1  UNL1       -0.0030
     13 C          63.9042   92.8315    2.2543 C.ar    1  UNL1       -0.0002
     14 C          62.8036   91.8992    1.8424 C.ar    1  UNL1        0.0013
     15 C          61.5761   92.4386    1.1700 C.ar    1  UNL1        0.0146
     16 C          61.4492   93.9103    0.9095 C.ar    1  UNL1        0.0513
     17 C          56.7930   93.1248   -1.2592 C.3     1  UNL1        0.0953
     18 C          55.5654   93.6643   -1.9316 C.3     1  UNL1        0.0261
     19 C          50.5129   96.8422   -3.0337 C.3     1  UNL1        0.1537
     20 N          51.9469   96.4597   -3.2513 N.ar    1  UNL1       -0.2477
     21 C          52.8826   95.9183   -2.2115 C.ar    1  UNL1        0.0924
     22 C          54.2110   95.6754   -2.8645 C.ar    1  UNL1        0.0172
     23 C          54.0962   96.0667   -4.3081 C.ar    1  UNL1        0.1173
     24 N          52.6970   96.5514   -4.5472 N.ar    1  UNL1       -0.1679
@<TRIPOS>BOND
     1    19    20    1
     2    20    21   ar
     3    21    22   ar
     4    22     1    1
     5     1     2    1
     6     2     3    1
     7     3     4    1
     8     4     5   am
     9     5     6    2
    10     5     7   am
    11     7     8    1
    12     8     9    1
    13     9    10    1
    14    10    11    1
    15    11    12   ar
    16    12    13   ar
    17    13    14   ar
    18    14    15   ar
    19    15    16   ar
    20     4    17    1
    21    17    18    1
    22    22    23   ar
    23    23    24   ar
    24    24    20   ar
    25    18     1    1
    26    16     7    1
    27    16    11   ar
@<TRIPOS>MOLECULE
*****
 24 27 0 0 0
SMALL
GASTEIGER

@<TRIPOS>ATOM
      1 C          58.2199   92.5837   -3.0107 C.3     1  UNL1        0.0288
      2 C          59.4297   93.2567   -3.5881 C.3     1  UNL1        0.0261
      3 C          60.4701   93.8389   -2.6778 C.3     1  UNL1        0.0953
      4 N          60.3007   93.7480   -1.1901 N.am    1  UNL1       -0.2638
      5 C          61.3411   94.3301   -0.2799 C.2     1  UNL1        0.3109
      6 O          61.1717   94.2393    1.2078 O.2     1  UNL1       -0.2520
      7 N          62.5509   95.0032   -0.8572 N.am    1  UNL1       -0.2434
      8 C          62.7204   95.0941   -2.3448 C.3     1  UNL1        0.1001
      9 C          63.9302   95.7671   -2.9221 C.3     1  UNL1        0.0267
     10 C          64.9706   96.3493   -2.0118 C.3     1  UNL1        0.0294
     11 C          64.8012   96.2584   -0.5242 C.ar    1  UNL1       -0.0084
     12 C          65.8416   96.8406    0.3861 C.ar    1  UNL1       -0.0030
     13 C          65.6722   96.7497    1.8737 C.ar    1  UNL1       -0.0002
     14 C          64.4623   96.0766    2.4510 C.ar    1  UNL1        0.0013
     15 C          63.4219   95.4945    1.5408 C.ar    1  UNL1        0.0146
     16 C          63.5914   95.5854    0.0532 C.ar    1  UNL1        0.0513
     17 C          59.0909   93.0749   -0.6128 C.3     1  UNL1        0.0953
     18 C          58.0505   92.4928   -1.5232 C.3     1  UNL1        0.0261
     19 C          55.3820   91.4490   -7.3164 C.3     1  UNL1        0.1537
     20 N          55.8751   91.4800   -5.9001 N.ar    1  UNL1       -0.2477
     21 C          57.0478   92.2649   -5.3918 C.ar    1  UNL1        0.0924
     22 C          57.1795   92.0015   -3.9210 C.ar    1  UNL1        0.0172
     23 C          56.0881   91.0537   -3.5203 C.ar    1  UNL1        0.1173
     24 N          55.2819   90.7313   -4.7435 N.ar    1  UNL1       -0.1679
@<TRIPOS>BOND
     1    19    20    1
     2    20    21   ar
     3    21    22   ar
     4    22     1    1
     5     1     2    1
     6     2     3    1
     7     3     4    1
     8     4     5   am
     9     5     6    2
    10     5     7   am
    11     7     8    1
    12     8     9    1
    13     9    10    1
    14    10    11    1
    15    11    12   ar
    16    12    13   ar
    17    13    14   ar
    18    14    15   ar
    19    15    16   ar
    20     4    17    1
    21    17    18    1
    22    22    23   ar
    23    23    24   ar
    24    24    20   ar
    25    18     1    1
    26    16     7    1
    27    16    11   ar
@<TRIPOS>MOLECULE
*****
 24 27 0 0 0
SMALL
GASTEIGER

@<TRIPOS>ATOM
      1 C          63.2136   86.2289   13.6891 C.3     1  UNL1        0.0288
      2 C          64.0474   87.1574   14.5214 C.3     1  UNL1        0.0261
      3 C          64.3835   88.5265   14.0089 C.3     1  UNL1        0.0953
      4 N          63.8858   88.9670   12.6641 N.am    1  UNL1       -0.2638
      5 C          64.2219   90.3361   12.1517 C.2     1  UNL1        0.3109
      6 O          63.7242   90.7767   10.8069 O.2     1  UNL1       -0.2520
      7 N          65.0557   91.2647   12.9839 N.am    1  UNL1       -0.2434
      8 C          65.5534   90.8242   14.3286 C.3     1  UNL1        0.1001
      9 C          66.3872   91.7527   15.1608 C.3     1  UNL1        0.0267
     10 C          66.7232   93.1218   14.6483 C.3     1  UNL1        0.0294
     11 C          66.2255   93.5623   13.3035 C.ar    1  UNL1       -0.0084
     12 C          66.5616   94.9314   12.7911 C.ar    1  UNL1       -0.0030
     13 C          66.0639   95.3719   11.4464 C.ar    1  UNL1       -0.0002
     14 C          65.2301   94.4433   10.6142 C.ar    1  UNL1        0.0013
     15 C          64.8940   93.0743   11.1267 C.ar    1  UNL1        0.0146
     16 C          65.3917   92.6338   12.4713 C.ar    1  UNL1        0.0513
     17 C          63.0520   88.0385   11.8319 C.3     1  UNL1        0.0953
     18 C          62.7159   86.6694   12.3445 C.3     1  UNL1        0.0261
     19 C          61.8096   81.1422   13.8778 C.3     1  UNL1        0.1537
     20 N          62.2322   82.5217   14.2883 N.ar    1  UNL1       -0.2477
     21 C          62.4726   83.6809   13.3672 C.ar    1  UNL1        0.0924
     22 C          62.8775   84.8598   14.2016 C.ar    1  UNL1        0.0172
     23 C          62.8873   84.4292   15.6385 C.ar    1  UNL1        0.1173
     24 N          62.4885   82.9842   15.6921 N.ar    1  UNL1       -0.1679
@<TRIPOS>BOND
     1    19    20    1
     2    20    21   ar
     3    21    22   ar
     4    22     1    1
     5     1     2    1
     6     2     3    1
     7     3     4    1
     8     4     5   am
     9     5     6    2
    10     5     7   am
    11     7     8    1
    12     8     9    1
    13     9    10    1
    14    10    11    1
    15    11    12   ar
    16    12    13   ar
    17    13    14   ar
    18    14    15   ar
    19    15    16   ar
    20     4    17    1
    21    17    18    1
    22    22    23   ar
    23    23    24   ar
    24    24    20   ar
    25    18     1    1
    26    16     7    1
    27    16    11   ar
@<TRIPOS>MOLECULE
*****
 24 27 0 0 0
SMALL
GASTEIGER

@<TRIPOS>ATOM
      1 C          58.1814   92.7954   -3.6901 C.3     1  UNL1        0.0288
      2 C          58.6853   92.2313   -2.3947 C.3     1  UNL1        0.0261
      3 C          59.8129   92.9056   -1.6711 C.3     1  UNL1        0.0953
      4 N          60.4367   94.1442   -2.2428 N.am    1  UNL1       -0.2638
      5 C          61.5644   94.8186   -1.5192 C.2     1  UNL1        0.3109
      6 O          62.1882   96.0572   -2.0909 O.2     1  UNL1       -0.2520
      7 N          62.0682   94.2544   -0.2239 N.am    1  UNL1       -0.2434
      8 C          61.4444   93.0159    0.3479 C.3     1  UNL1        0.1001
      9 C          61.9482   92.4518    1.6432 C.3     1  UNL1        0.0267
     10 C          63.0758   93.1261    2.3668 C.3     1  UNL1        0.0294
     11 C          63.6997   94.3647    1.7951 C.ar    1  UNL1       -0.0084
     12 C          64.8273   95.0391    2.5187 C.ar    1  UNL1       -0.0030
     13 C          65.4511   96.2776    1.9470 C.ar    1  UNL1       -0.0002
     14 C          64.9473   96.8417    0.6516 C.ar    1  UNL1        0.0013
     15 C          63.8197   96.1674   -0.0720 C.ar    1  UNL1        0.0146
     16 C          63.1959   94.9289    0.4997 C.ar    1  UNL1        0.0513
     17 C          59.9329   94.7084   -3.5382 C.3     1  UNL1        0.0953
     18 C          58.8052   94.0339   -4.2618 C.3     1  UNL1        0.0261
     19 C          54.8735   91.2499   -7.5044 C.3     1  UNL1        0.1537
     20 N          55.5334   91.4107   -6.1670 N.ar    1  UNL1       -0.2477
     21 C          56.7385   92.2543   -5.8741 C.ar    1  UNL1        0.0924
     22 C          57.0538   92.1211   -4.4137 C.ar    1  UNL1        0.0172
     23 C          56.0435   91.1950   -3.8040 C.ar    1  UNL1        0.1173
     24 N          55.1038   90.7560   -4.8875 N.ar    1  UNL1       -0.1679
@<TRIPOS>BOND
     1    19    20    1
     2    20    21   ar
     3    21    22   ar
     4    22     1    1
     5     1     2    1
     6     2     3    1
     7     3     4    1
     8     4     5   am
     9     5     6    2
    10     5     7   am
    11     7     8    1
    12     8     9    1
    13     9    10    1
    14    10    11    1
    15    11    12   ar
    16    12    13   ar
    17    13    14   ar
    18    14    15   ar
    19    15    16   ar
    20     4    17    1
    21    17    18    1
    22    22    23   ar
    23    23    24   ar
    24    24    20   ar
    25    18     1    1
    26    16     7    1
    27    16    11   ar
@<TRIPOS>MOLECULE
*****
 24 27 0 0 0
SMALL
GASTEIGER

@<TRIPOS>ATOM
      1 C          60.3164   93.7774   -0.8576 C.3     1  UNL1        0.0288
      2 C          59.0264   94.2867   -0.2862 C.3     1  UNL1        0.0261
      3 C          57.8945   94.6532   -1.1996 C.3     1  UNL1        0.0953
      4 N          58.0525   94.5104   -2.6845 N.am    1  UNL1       -0.2638
      5 C          56.9205   94.8769   -3.5978 C.2     1  UNL1        0.3109
      6 O          57.0785   94.7341   -5.0827 O.2     1  UNL1       -0.2520
      7 N          55.6305   95.3863   -3.0264 N.am    1  UNL1       -0.2434
      8 C          55.4725   95.5291   -1.5417 C.3     1  UNL1        0.1001
      9 C          54.1825   96.0384   -0.9703 C.3     1  UNL1        0.0267
     10 C          53.0505   96.4049   -1.8836 C.3     1  UNL1        0.0294
     11 C          53.2085   96.2621   -3.3685 C.ar    1  UNL1       -0.0084
     12 C          52.0766   96.6287   -4.2819 C.ar    1  UNL1       -0.0030
     13 C          52.2346   96.4858   -5.7666 C.ar    1  UNL1       -0.0002
     14 C          53.5246   95.9765   -6.3380 C.ar    1  UNL1        0.0013
     15 C          54.6566   95.6100   -5.4247 C.ar    1  UNL1        0.0146
     16 C          54.4985   95.7528   -3.9399 C.ar    1  UNL1        0.0513
     17 C          59.3425   94.0011   -3.2559 C.3     1  UNL1        0.0953
     18 C          60.4745   93.6346   -2.3424 C.3     1  UNL1        0.0261
     19 C          63.1631   91.4292    2.9189 C.3     1  UNL1        0.1537
     20 N          62.7569   92.3315    1.7916 N.ar    1  UNL1       -0.2477
     21 C          61.4125   92.3617    1.1271 C.ar    1  UNL1        0.0924
     22 C          61.4484   93.4109    0.0557 C.ar    1  UNL1        0.0172
     23 C          62.8150   94.0292    0.0581 C.ar    1  UNL1        0.1173
     24 N          63.6238   93.3621    1.1309 N.ar    1  UNL1       -0.1679
@<TRIPOS>BOND
     1    19    20    1
     2    20    21   ar
     3    21    22   ar
     4    22     1    1
     5     1     2    1
     6     2     3    1
     7     3     4    1
     8     4     5   am
     9     5     6    2
    10     5     7   am
    11     7     8    1
    12     8     9    1
    13     9    10    1
    14    10    11    1
    15    11    12   ar
    16    12    13   ar
    17    13    14   ar
    18    14    15   ar
    19    15    16   ar
    20     4    17    1
    21    17    18    1
    22    22    23   ar
    23    23    24   ar
    24    24    20   ar
    25    18     1    1
    26    16     7    1
    27    16    11   ar
