@<TRIPOS>MOLECULE
*****
 39 42 0 0 0
SMALL
GASTEIGER

@<TRIPOS>ATOM
      1 C          61.9953   89.0865   11.5884 C.3     1  UNL1        0.0792
      2 C          63.1136   90.0312   11.9157 C.ar    1  UNL1        0.0374
      3 C          63.5319   91.0720   10.9200 C.ar    1  UNL1        0.0023
      4 C          64.6502   92.0167   11.2473 C.ar    1  UNL1        0.0181
      5 C          65.0685   93.0576   10.2516 C.ar    1  UNL1        0.0082
      6 C          66.1867   94.0021   10.5790 C.ar    1  UNL1        0.0347
      7 BR         66.6050   95.0431    9.5832 Br      1  UNL1       -0.0490
      8 C          66.8867   93.9059   11.9021 C.ar    1  UNL1        0.0082
      9 C          66.4684   92.8650   12.8979 C.ar    1  UNL1        0.0197
     10 C          65.3501   91.9204   12.5705 C.ar    1  UNL1        0.0844
     11 N          64.9318   90.8795   13.5663 N.ar    1  UNL1       -0.2119
     12 C          63.8136   89.9349   13.2389 C.ar    1  UNL1        0.2211
     13 O          63.3952   88.8940   14.2347 O.3     1  UNL1       -0.4563
     14 C          64.3624   87.8276   14.6560 C.3     1  UNL1        0.2542
     15 C          62.5405   85.1586   11.4338 C.ar    1  UNL1        0.1913
     16 C          62.2346   86.5272   11.9660 C.ar    1  UNL1        0.0394
     17 C          62.3012   87.7179   11.0562 C.ar    1  UNL1        0.0067
     18 C          62.6738   87.5399    9.6141 C.ar    1  UNL1        0.0984
     19 N          62.9797   86.1713    9.0819 N.ar    1  UNL1       -0.2079
     20 C          62.9130   84.9806    9.9917 C.ar    1  UNL1        0.2601
     21 C          62.9285   84.0862   13.7683 C.3     1  UNL1        0.2527
     22 O          62.4738   83.9679   12.3437 O.3     1  UNL1       -0.4667
     23 O          63.2189   83.6120    9.4596 O.3     1  UNL1       -0.4541
     24 C          64.2725   82.7702   10.1163 C.3     1  UNL1        0.2543
     25 C          60.5712   89.5105   11.7932 C.3     1  UNL1        0.1159
     26 O          60.8764   89.8450   13.2232 O.3     1  UNL1       -0.3820
     27 H          60.5497   90.7360   13.4237 H       1  UNL1        0.2107
     28 C          60.2659   89.1761   10.3632 C.ar    1  UNL1        0.0046
     29 C          60.4579   90.2101    9.2937 C.ar    1  UNL1       -0.0019
     30 C          60.1527   89.8756    7.8636 C.ar    1  UNL1        0.0021
     31 C          59.6554   88.5072    7.5031 C.ar    1  UNL1        0.0296
     32 C          59.4634   87.4732    8.5726 C.ar    1  UNL1        0.1399
     33 F          58.9660   86.1047    8.2122 F       1  UNL1       -0.2042
     34 C          59.7686   87.8076   10.0027 C.ar    1  UNL1        0.0276
     35 C          59.1470   89.9346   11.9980 C.3     1  UNL1        0.0491
     36 C          58.0575   88.9048   12.0467 C.3     1  UNL1        0.0750
     37 N          57.5343   88.4284   13.3694 N.3     1  UNL1       -0.2702
     38 C          56.1214   87.9383   13.4846 C.3     1  UNL1        0.0897
     39 C          58.4241   88.4421   14.5768 C.3     1  UNL1        0.0897
@<TRIPOS>BOND
     1    21    22    1
     2    22    15    1
     3    15    16   ar
     4    16    17   ar
     5     1    17    1
     6     1     2    1
     7     2     3   ar
     8     3     4   ar
     9     4     5   ar
    10     5     6   ar
    11     6     7    1
    12     6     8   ar
    13     8     9   ar
    14     9    10   ar
    15    10    11   ar
    16    11    12   ar
    17    12    13    1
    18    13    14    1
    19     1    25    1
    20    25    26    1
    21    25    35    1
    22    35    36    1
    23    36    37    1
    24    37    38    1
    25    37    39    1
    26    25    28    1
    27    28    29   ar
    28    29    30   ar
    29    30    31   ar
    30    31    32   ar
    31    32    33    1
    32    32    34   ar
    33    17    18   ar
    34    18    19   ar
    35    19    20   ar
    36    20    23    1
    37    23    24    1
    38    20    15   ar
    39    12     2   ar
    40    34    28   ar
    41    10     4   ar
    42    26    27    1
@<TRIPOS>MOLECULE
*****
 39 42 0 0 0
SMALL
GASTEIGER

@<TRIPOS>ATOM
      1 C          62.7488   89.4862   12.0356 C.3     1  UNL1        0.0792
      2 C          63.0868   88.3811   12.9920 C.ar    1  UNL1        0.0374
      3 C          63.3242   86.9917   12.4789 C.ar    1  UNL1        0.0023
      4 C          63.6622   85.8866   13.4353 C.ar    1  UNL1        0.0181
      5 C          63.8996   84.4972   12.9223 C.ar    1  UNL1        0.0082
      6 C          64.2376   83.3922   13.8786 C.ar    1  UNL1        0.0347
      7 BR         64.4749   82.0027   13.3656 Br      1  UNL1       -0.0490
      8 C          64.3382   83.6765   15.3480 C.ar    1  UNL1        0.0082
      9 C          64.1009   85.0659   15.8610 C.ar    1  UNL1        0.0197
     10 C          63.7629   86.1709   14.9047 C.ar    1  UNL1        0.0844
     11 N          63.5255   87.5604   15.4177 N.ar    1  UNL1       -0.2119
     12 C          63.1875   88.6654   14.4613 C.ar    1  UNL1        0.2211
     13 O          62.9501   90.0549   14.9743 O.3     1  UNL1       -0.4563
     14 C          63.4984   90.4656   16.3088 C.3     1  UNL1        0.2542
     15 C          65.7720   92.0069   12.5416 C.ar    1  UNL1        0.1913
     16 C          64.7809   90.9117   12.8027 C.ar    1  UNL1        0.0394
     17 C          63.7399   90.5814   11.7745 C.ar    1  UNL1        0.0067
     18 C          63.6899   91.3463   10.4852 C.ar    1  UNL1        0.0984
     19 N          64.6811   92.4416   10.2240 N.ar    1  UNL1       -0.2079
     20 C          65.7221   92.7719   11.2522 C.ar    1  UNL1        0.2601
     21 C          66.6093   93.4984   14.4972 C.3     1  UNL1        0.2527
     22 O          66.8130   92.3372   13.5698 O.3     1  UNL1       -0.4667
     23 O          66.7132   93.8671   10.9911 O.3     1  UNL1       -0.4541
     24 C          66.3127   95.3007   11.1761 C.3     1  UNL1        0.2543
     25 C          61.4197   89.4960   11.3404 C.3     1  UNL1        0.1159
     26 O          61.1344   90.8561   11.9050 O.3     1  UNL1       -0.3820
     27 H          60.8462   91.4480   11.1926 H       1  UNL1        0.2107
     28 C          61.7049   88.1359   10.7758 C.ar    1  UNL1        0.0046
     29 C          60.9654   86.9384   11.2944 C.ar    1  UNL1       -0.0019
     30 C          61.2507   85.5783   10.7298 C.ar    1  UNL1        0.0021
     31 C          62.2755   85.4157    9.6466 C.ar    1  UNL1        0.0296
     32 C          63.0150   86.6132    9.1281 C.ar    1  UNL1        0.1399
     33 F          64.0399   86.4507    8.0448 F       1  UNL1       -0.2042
     34 C          62.7297   87.9733    9.6926 C.ar    1  UNL1        0.0276
     35 C          60.0905   89.5058   10.6452 C.3     1  UNL1        0.0491
     36 C          59.9875   89.9949    9.2310 C.3     1  UNL1        0.0750
     37 N          59.5488   89.0592    8.1438 N.3     1  UNL1       -0.2702
     38 C          59.1878   87.6415    8.4750 C.3     1  UNL1        0.0897
     39 C          59.4713   89.5411    6.7255 C.3     1  UNL1        0.0897
@<TRIPOS>BOND
     1    21    22    1
     2    22    15    1
     3    15    16   ar
     4    16    17   ar
     5     1    17    1
     6     1     2    1
     7     2     3   ar
     8     3     4   ar
     9     4     5   ar
    10     5     6   ar
    11     6     7    1
    12     6     8   ar
    13     8     9   ar
    14     9    10   ar
    15    10    11   ar
    16    11    12   ar
    17    12    13    1
    18    13    14    1
    19     1    25    1
    20    25    26    1
    21    25    35    1
    22    35    36    1
    23    36    37    1
    24    37    38    1
    25    37    39    1
    26    25    28    1
    27    28    29   ar
    28    29    30   ar
    29    30    31   ar
    30    31    32   ar
    31    32    33    1
    32    32    34   ar
    33    17    18   ar
    34    18    19   ar
    35    19    20   ar
    36    20    23    1
    37    23    24    1
    38    20    15   ar
    39    12     2   ar
    40    34    28   ar
    41    10     4   ar
    42    26    27    1
@<TRIPOS>MOLECULE
*****
 39 42 0 0 0
SMALL
GASTEIGER

@<TRIPOS>ATOM
      1 C          62.0123   89.0710   11.7070 C.3     1  UNL1        0.0792
      2 C          63.1351   90.0263   11.9841 C.ar    1  UNL1        0.0374
      3 C          63.5491   91.0203   10.9398 C.ar    1  UNL1        0.0023
      4 C          64.6720   91.9756   11.2169 C.ar    1  UNL1        0.0181
      5 C          65.0859   92.9696   10.1727 C.ar    1  UNL1        0.0082
      6 C          66.2087   93.9248   10.4498 C.ar    1  UNL1        0.0347
      7 BR         66.6228   94.9189    9.4055 Br      1  UNL1       -0.0490
      8 C          66.9175   93.8860   11.7712 C.ar    1  UNL1        0.0082
      9 C          66.5036   92.8920   12.8154 C.ar    1  UNL1        0.0197
     10 C          65.3808   91.9368   12.5383 C.ar    1  UNL1        0.0844
     11 N          64.9667   90.9427   13.5826 N.ar    1  UNL1       -0.2119
     12 C          63.8440   89.9875   13.3055 C.ar    1  UNL1        0.2211
     13 O          63.4299   88.9934   14.3498 O.3     1  UNL1       -0.4563
     14 C          63.4033   89.3917   15.7957 C.3     1  UNL1        0.2542
     15 C          62.8908   85.9895    9.3656 C.ar    1  UNL1        0.1913
     16 C          62.5913   87.3895    9.8130 C.ar    1  UNL1        0.0394
     17 C          62.3118   87.6710   11.2596 C.ar    1  UNL1        0.0067
     18 C          62.3319   86.5525   12.2588 C.ar    1  UNL1        0.0984
     19 N          62.6315   85.1524   11.8114 N.ar    1  UNL1       -0.2079
     20 C          62.9109   84.8709   10.3648 C.ar    1  UNL1        0.2601
     21 C          62.1552   84.9823    7.0864 C.3     1  UNL1        0.2527
     22 O          63.1703   85.7081    7.9190 O.3     1  UNL1       -0.4667
     23 O          63.2105   83.4709    9.9174 O.3     1  UNL1       -0.4541
     24 C          64.2953   82.6842   10.5912 C.3     1  UNL1        0.2543
     25 C          60.5899   89.5158   11.8774 C.3     1  UNL1        0.1159
     26 O          60.8701   89.8635   13.3094 O.3     1  UNL1       -0.3820
     27 H          60.5511   90.7610   13.4926 H       1  UNL1        0.2107
     28 C          60.3097   89.1681   10.4454 C.ar    1  UNL1        0.0046
     29 C          60.5200   90.1924    9.3699 C.ar    1  UNL1       -0.0019
     30 C          60.2397   89.8447    7.9379 C.ar    1  UNL1        0.0021
     31 C          59.7492   88.4728    7.5814 C.ar    1  UNL1        0.0296
     32 C          59.5389   87.4485    8.6568 C.ar    1  UNL1        0.1399
     33 F          59.0484   86.0765    8.3003 F       1  UNL1       -0.2042
     34 C          59.8192   87.7962   10.0888 C.ar    1  UNL1        0.0276
     35 C          59.1675   89.9606   12.0477 C.3     1  UNL1        0.0491
     36 C          58.0615   88.9474   12.0626 C.3     1  UNL1        0.0750
     37 N          57.5324   88.4338   13.3688 N.3     1  UNL1       -0.2702
     38 C          58.4131   88.4238   14.5829 C.3     1  UNL1        0.0897
     39 C          56.1225   87.9301   13.4608 C.3     1  UNL1        0.0897
@<TRIPOS>BOND
     1    21    22    1
     2    22    15    1
     3    15    16   ar
     4    16    17   ar
     5     1    17    1
     6     1     2    1
     7     2     3   ar
     8     3     4   ar
     9     4     5   ar
    10     5     6   ar
    11     6     7    1
    12     6     8   ar
    13     8     9   ar
    14     9    10   ar
    15    10    11   ar
    16    11    12   ar
    17    12    13    1
    18    13    14    1
    19     1    25    1
    20    25    26    1
    21    25    35    1
    22    35    36    1
    23    36    37    1
    24    37    38    1
    25    37    39    1
    26    25    28    1
    27    28    29   ar
    28    29    30   ar
    29    30    31   ar
    30    31    32   ar
    31    32    33    1
    32    32    34   ar
    33    17    18   ar
    34    18    19   ar
    35    19    20   ar
    36    20    23    1
    37    23    24    1
    38    20    15   ar
    39    12     2   ar
    40    34    28   ar
    41    10     4   ar
    42    26    27    1
@<TRIPOS>MOLECULE
*****
 39 42 0 0 0
SMALL
GASTEIGER

@<TRIPOS>ATOM
      1 C          62.4992   88.6906   11.0550 C.3     1  UNL1        0.0792
      2 C          63.2745   89.8695   11.5643 C.ar    1  UNL1        0.0374
      3 C          64.0475   90.7285   10.6082 C.ar    1  UNL1        0.0023
      4 C          64.8228   91.9073   11.1175 C.ar    1  UNL1        0.0181
      5 C          65.5959   92.7664   10.1613 C.ar    1  UNL1        0.0082
      6 C          66.3711   93.9451   10.6706 C.ar    1  UNL1        0.0347
      7 BR         67.1443   94.8043    9.7144 Br      1  UNL1       -0.0490
      8 C          66.3733   94.2649   12.1362 C.ar    1  UNL1        0.0082
      9 C          65.6002   93.4058   13.0923 C.ar    1  UNL1        0.0197
     10 C          64.8250   92.2271   12.5830 C.ar    1  UNL1        0.0844
     11 N          64.0519   91.3679   13.5392 N.ar    1  UNL1       -0.2119
     12 C          63.2766   90.1892   13.0299 C.ar    1  UNL1        0.2211
     13 O          62.5035   89.3301   13.9861 O.3     1  UNL1       -0.4563
     14 C          62.7572   89.4336   15.4608 C.3     1  UNL1        0.2542
     15 C          63.6894   85.8555   13.5640 C.ar    1  UNL1        0.1913
     16 C          63.5041   87.2040   12.9339 C.ar    1  UNL1        0.0394
     17 C          62.6845   87.3421   11.6852 C.ar    1  UNL1        0.0067
     18 C          62.0502   86.1317   11.0667 C.ar    1  UNL1        0.0984
     19 N          62.2355   84.7831   11.6969 N.ar    1  UNL1       -0.2079
     20 C          63.0551   84.6450   12.9455 C.ar    1  UNL1        0.2601
     21 C          63.8506   85.8175   16.1569 C.3     1  UNL1        0.2527
     22 O          64.5090   85.7174   14.8127 O.3     1  UNL1       -0.4667
     23 O          63.2404   83.2965   13.5757 O.3     1  UNL1       -0.4541
     24 C          62.2659   82.8104   14.6072 C.3     1  UNL1        0.2543
     25 C          61.5386   88.8604    9.9155 C.3     1  UNL1        0.1159
     26 O          62.6126   88.4556    8.9498 O.3     1  UNL1       -0.3820
     27 H          62.2724   87.7665    8.3580 H       1  UNL1        0.2107
     28 C          60.4645   89.2651   10.8812 C.ar    1  UNL1        0.0046
     29 C          59.9187   88.2660   11.8578 C.ar    1  UNL1       -0.0019
     30 C          58.8447   88.6707   12.8235 C.ar    1  UNL1        0.0021
     31 C          58.3164   90.0745   12.8126 C.ar    1  UNL1        0.0296
     32 C          58.8622   91.0736   11.8360 C.ar    1  UNL1        0.1399
     33 F          58.3339   92.4775   11.8251 F       1  UNL1       -0.2042
     34 C          59.9363   90.6689   10.8703 C.ar    1  UNL1        0.0276
     35 C          60.5780   89.0301    8.7760 C.3     1  UNL1        0.0491
     36 C          60.6414   88.1045    7.5974 C.3     1  UNL1        0.0750
     37 N          60.0752   86.7192    7.7004 N.3     1  UNL1       -0.2702
     38 C          58.6135   86.5250    7.9755 C.3     1  UNL1        0.0897
     39 C          60.9707   85.5283    7.5283 C.3     1  UNL1        0.0897
@<TRIPOS>BOND
     1    21    22    1
     2    22    15    1
     3    15    16   ar
     4    16    17   ar
     5     1    17    1
     6     1     2    1
     7     2     3   ar
     8     3     4   ar
     9     4     5   ar
    10     5     6   ar
    11     6     7    1
    12     6     8   ar
    13     8     9   ar
    14     9    10   ar
    15    10    11   ar
    16    11    12   ar
    17    12    13    1
    18    13    14    1
    19     1    25    1
    20    25    26    1
    21    25    35    1
    22    35    36    1
    23    36    37    1
    24    37    38    1
    25    37    39    1
    26    25    28    1
    27    28    29   ar
    28    29    30   ar
    29    30    31   ar
    30    31    32   ar
    31    32    33    1
    32    32    34   ar
    33    17    18   ar
    34    18    19   ar
    35    19    20   ar
    36    20    23    1
    37    23    24    1
    38    20    15   ar
    39    12     2   ar
    40    34    28   ar
    41    10     4   ar
    42    26    27    1
@<TRIPOS>MOLECULE
*****
 39 42 0 0 0
SMALL
GASTEIGER

@<TRIPOS>ATOM
      1 C          62.8114   88.5202   11.3595 C.3     1  UNL1        0.0792
      2 C          63.4793   89.8137   11.7214 C.ar    1  UNL1        0.0374
      3 C          64.2549   90.5727   10.6859 C.ar    1  UNL1        0.0023
      4 C          64.9228   91.8662   11.0478 C.ar    1  UNL1        0.0181
      5 C          65.6984   92.6252   10.0123 C.ar    1  UNL1        0.0082
      6 C          66.3662   93.9186   10.3743 C.ar    1  UNL1        0.0347
      7 BR         67.1419   94.6777    9.3387 Br      1  UNL1       -0.0490
      8 C          66.2584   94.4530   11.7717 C.ar    1  UNL1        0.0082
      9 C          65.4828   93.6940   12.8072 C.ar    1  UNL1        0.0197
     10 C          64.8150   92.4006   12.4453 C.ar    1  UNL1        0.0844
     11 N          64.0393   91.6415   13.4808 N.ar    1  UNL1       -0.2119
     12 C          63.3715   90.3481   13.1189 C.ar    1  UNL1        0.2211
     13 O          62.5958   89.5891   14.1544 O.3     1  UNL1       -0.4563
     14 C          62.9043   89.7777   15.6101 C.3     1  UNL1        0.2542
     15 C          62.7682   84.7418   12.5725 C.ar    1  UNL1        0.1913
     16 C          62.5450   85.9625   11.7299 C.ar    1  UNL1        0.0394
     17 C          63.0345   87.2995   12.2021 C.ar    1  UNL1        0.0067
     18 C          63.7471   87.4157   13.5169 C.ar    1  UNL1        0.0984
     19 N          63.9703   86.1950   14.3595 N.ar    1  UNL1       -0.2079
     20 C          63.4808   84.8580   13.8873 C.ar    1  UNL1        0.2601
     21 C          63.2316   82.4421   11.4560 C.3     1  UNL1        0.2527
     22 O          62.2787   83.4049   12.1003 O.3     1  UNL1       -0.4667
     23 O          63.7040   83.6373   14.7299 O.3     1  UNL1       -0.4541
     24 C          62.5316   82.8901   15.2930 C.3     1  UNL1        0.2543
     25 C          61.9203   88.4476   10.1551 C.3     1  UNL1        0.1159
     26 O          63.0192   87.7800    9.3825 O.3     1  UNL1       -0.3820
     27 H          62.6734   86.9823    8.9523 H       1  UNL1        0.2107
     28 C          60.8215   89.1152   10.9276 C.ar    1  UNL1        0.0046
     29 C          60.4780   90.5497   10.6556 C.ar    1  UNL1       -0.0019
     30 C          59.3792   91.2173   11.4282 C.ar    1  UNL1        0.0021
     31 C          58.6239   90.4504   12.4728 C.ar    1  UNL1        0.0296
     32 C          58.9674   89.0159   12.7448 C.ar    1  UNL1        0.1399
     33 F          58.2120   88.2489   13.7895 F       1  UNL1       -0.2042
     34 C          60.0662   88.3483   11.9722 C.ar    1  UNL1        0.0276
     35 C          61.0293   88.3749    8.9506 C.3     1  UNL1        0.0491
     36 C          60.2709   87.1153    8.6536 C.3     1  UNL1        0.0750
     37 N          60.9408   85.9919    7.9193 N.3     1  UNL1       -0.2702
     38 C          60.2365   85.3142    6.7815 C.3     1  UNL1        0.0897
     39 C          62.3150   85.5463    8.3228 C.3     1  UNL1        0.0897
@<TRIPOS>BOND
     1    21    22    1
     2    22    15    1
     3    15    16   ar
     4    16    17   ar
     5     1    17    1
     6     1     2    1
     7     2     3   ar
     8     3     4   ar
     9     4     5   ar
    10     5     6   ar
    11     6     7    1
    12     6     8   ar
    13     8     9   ar
    14     9    10   ar
    15    10    11   ar
    16    11    12   ar
    17    12    13    1
    18    13    14    1
    19     1    25    1
    20    25    26    1
    21    25    35    1
    22    35    36    1
    23    36    37    1
    24    37    38    1
    25    37    39    1
    26    25    28    1
    27    28    29   ar
    28    29    30   ar
    29    30    31   ar
    30    31    32   ar
    31    32    33    1
    32    32    34   ar
    33    17    18   ar
    34    18    19   ar
    35    19    20   ar
    36    20    23    1
    37    23    24    1
    38    20    15   ar
    39    12     2   ar
    40    34    28   ar
    41    10     4   ar
    42    26    27    1
@<TRIPOS>MOLECULE
*****
 39 42 0 0 0
SMALL
GASTEIGER

@<TRIPOS>ATOM
      1 C          62.1939   88.6968   11.4363 C.3     1  UNL1        0.0792
      2 C          63.0884   89.8340   11.8322 C.ar    1  UNL1        0.0374
      3 C          63.8087   90.6233   10.7795 C.ar    1  UNL1        0.0023
      4 C          64.7032   91.7605   11.1754 C.ar    1  UNL1        0.0181
      5 C          65.4235   92.5497   10.1227 C.ar    1  UNL1        0.0082
      6 C          66.3179   93.6869   10.5187 C.ar    1  UNL1        0.0347
      7 BR         67.0382   94.4762    9.4659 Br      1  UNL1       -0.0490
      8 C          66.4921   94.0347   11.9673 C.ar    1  UNL1        0.0082
      9 C          65.7719   93.2455   13.0200 C.ar    1  UNL1        0.0197
     10 C          64.8774   92.1084   12.6241 C.ar    1  UNL1        0.0844
     11 N          64.1571   91.3190   13.6768 N.ar    1  UNL1       -0.2119
     12 C          63.2626   90.1819   13.2809 C.ar    1  UNL1        0.2211
     13 O          62.5423   89.3925   14.3336 O.3     1  UNL1       -0.4563
     14 C          63.0270   89.4180   15.7529 C.3     1  UNL1        0.2542
     15 C          63.7780   85.7265   13.5381 C.ar    1  UNL1        0.1913
     16 C          63.5305   87.1010   12.9910 C.ar    1  UNL1        0.0394
     17 C          62.4415   87.3223   11.9834 C.ar    1  UNL1        0.0067
     18 C          61.6000   86.1691   11.5230 C.ar    1  UNL1        0.0984
     19 N          61.8475   84.7945   12.0702 N.ar    1  UNL1       -0.2079
     20 C          62.9365   84.5732   13.0777 C.ar    1  UNL1        0.2601
     21 C          64.5350   85.4415   16.0071 C.3     1  UNL1        0.2527
     22 O          64.8670   85.5052   14.5456 O.3     1  UNL1       -0.4667
     23 O          63.1841   83.1987   13.6249 O.3     1  UNL1       -0.4541
     24 C          62.1985   82.5794   14.5710 C.3     1  UNL1        0.2543
     25 C          61.0519   88.9342   10.4932 C.3     1  UNL1        0.1159
     26 O          60.5767   90.0671   11.3538 O.3     1  UNL1       -0.3820
     27 H          60.4210   90.8493   10.8017 H       1  UNL1        0.2107
     28 C          61.5271   87.8013    9.6325 C.ar    1  UNL1        0.0046
     29 C          62.9960   87.5336    9.4889 C.ar    1  UNL1       -0.0019
     30 C          63.4712   86.4007    8.6282 C.ar    1  UNL1        0.0021
     31 C          62.4776   85.5355    7.9112 C.ar    1  UNL1        0.0296
     32 C          61.0087   85.8032    8.0549 C.ar    1  UNL1        0.1399
     33 F          60.0150   84.9380    7.3379 F       1  UNL1       -0.2042
     34 C          60.5335   86.9361    8.9156 C.ar    1  UNL1        0.0276
     35 C          59.9099   89.1716    9.5501 C.3     1  UNL1        0.0491
     36 C          60.1396   89.9102    8.2650 C.3     1  UNL1        0.0750
     37 N          59.4055   89.5003    7.0228 N.3     1  UNL1       -0.2702
     38 C          58.5813   88.2471    7.0177 C.3     1  UNL1        0.0897
     39 C          59.4956   90.3437    5.7856 C.3     1  UNL1        0.0897
@<TRIPOS>BOND
     1    21    22    1
     2    22    15    1
     3    15    16   ar
     4    16    17   ar
     5     1    17    1
     6     1     2    1
     7     2     3   ar
     8     3     4   ar
     9     4     5   ar
    10     5     6   ar
    11     6     7    1
    12     6     8   ar
    13     8     9   ar
    14     9    10   ar
    15    10    11   ar
    16    11    12   ar
    17    12    13    1
    18    13    14    1
    19     1    25    1
    20    25    26    1
    21    25    35    1
    22    35    36    1
    23    36    37    1
    24    37    38    1
    25    37    39    1
    26    25    28    1
    27    28    29   ar
    28    29    30   ar
    29    30    31   ar
    30    31    32   ar
    31    32    33    1
    32    32    34   ar
    33    17    18   ar
    34    18    19   ar
    35    19    20   ar
    36    20    23    1
    37    23    24    1
    38    20    15   ar
    39    12     2   ar
    40    34    28   ar
    41    10     4   ar
    42    26    27    1
@<TRIPOS>MOLECULE
*****
 39 42 0 0 0
SMALL
GASTEIGER

@<TRIPOS>ATOM
      1 C          62.7416   88.3790   11.4077 C.3     1  UNL1        0.0792
      2 C          62.9929   87.1698   12.2591 C.ar    1  UNL1        0.0374
      3 C          62.6961   85.8006   11.7234 C.ar    1  UNL1        0.0023
      4 C          62.9474   84.5914   12.5747 C.ar    1  UNL1        0.0181
      5 C          62.6506   83.2221   12.0390 C.ar    1  UNL1        0.0082
      6 C          62.9019   82.0130   12.8903 C.ar    1  UNL1        0.0347
      7 BR         62.6051   80.6437   12.3546 Br      1  UNL1       -0.0490
      8 C          63.4501   82.1731   14.2774 C.ar    1  UNL1        0.0082
      9 C          63.7469   83.5424   14.8131 C.ar    1  UNL1        0.0197
     10 C          63.4956   84.7515   13.9618 C.ar    1  UNL1        0.0844
     11 N          63.7924   86.1208   14.4974 N.ar    1  UNL1       -0.2119
     12 C          63.5411   87.3299   13.6461 C.ar    1  UNL1        0.2211
     13 O          63.8379   88.6993   14.1818 O.3     1  UNL1       -0.4563
     14 C          63.8129   88.9476   15.6609 C.3     1  UNL1        0.2542
     15 C          64.8154   91.7517   11.1358 C.ar    1  UNL1        0.1913
     16 C          64.1960   90.4354   10.7704 C.ar    1  UNL1        0.0394
     17 C          63.3610   89.6954   11.7731 C.ar    1  UNL1        0.0067
     18 C          63.1455   90.2717   13.1410 C.ar    1  UNL1        0.0984
     19 N          63.7650   91.5881   13.5064 N.ar    1  UNL1       -0.2079
     20 C          64.5999   92.3281   12.5038 C.ar    1  UNL1        0.2601
     21 C          67.1448   92.5024   10.2635 C.3     1  UNL1        0.2527
     22 O          65.6504   92.4917   10.1332 O.3     1  UNL1       -0.4667
     23 O          65.2194   93.6444   12.8691 O.3     1  UNL1       -0.4541
     24 C          66.4286   93.6839   13.7557 C.3     1  UNL1        0.2543
     25 C          61.8708   88.2718   10.1911 C.3     1  UNL1        0.1159
     26 O          62.9735   87.5604    9.4645 O.3     1  UNL1       -0.3820
     27 H          62.6243   86.7513    9.0591 H       1  UNL1        0.2107
     28 C          60.7681   88.9833   10.9176 C.ar    1  UNL1        0.0046
     29 C          60.4211   90.3969   10.5552 C.ar    1  UNL1       -0.0019
     30 C          59.3184   91.1083   11.2817 C.ar    1  UNL1        0.0021
     31 C          58.5627   90.4062   12.3706 C.ar    1  UNL1        0.0296
     32 C          58.9097   88.9927   12.7331 C.ar    1  UNL1        0.1399
     33 F          58.1539   88.2905   13.8221 F       1  UNL1       -0.2042
     34 C          60.0124   88.2812   12.0065 C.ar    1  UNL1        0.0276
     35 C          61.0001   88.1646    8.9744 C.3     1  UNL1        0.0491
     36 C          60.3393   86.8609    8.6375 C.3     1  UNL1        0.0750
     37 N          61.0823   85.8260    7.8456 N.3     1  UNL1       -0.2702
     38 C          60.4271   85.1713    6.6658 C.3     1  UNL1        0.0897
     39 C          62.4805   85.4459    8.2335 C.3     1  UNL1        0.0897
@<TRIPOS>BOND
     1    21    22    1
     2    22    15    1
     3    15    16   ar
     4    16    17   ar
     5     1    17    1
     6     1     2    1
     7     2     3   ar
     8     3     4   ar
     9     4     5   ar
    10     5     6   ar
    11     6     7    1
    12     6     8   ar
    13     8     9   ar
    14     9    10   ar
    15    10    11   ar
    16    11    12   ar
    17    12    13    1
    18    13    14    1
    19     1    25    1
    20    25    26    1
    21    25    35    1
    22    35    36    1
    23    36    37    1
    24    37    38    1
    25    37    39    1
    26    25    28    1
    27    28    29   ar
    28    29    30   ar
    29    30    31   ar
    30    31    32   ar
    31    32    33    1
    32    32    34   ar
    33    17    18   ar
    34    18    19   ar
    35    19    20   ar
    36    20    23    1
    37    23    24    1
    38    20    15   ar
    39    12     2   ar
    40    34    28   ar
    41    10     4   ar
    42    26    27    1
@<TRIPOS>MOLECULE
*****
 39 42 0 0 0
SMALL
GASTEIGER

@<TRIPOS>ATOM
      1 C          62.1173   86.5468   11.6877 C.3     1  UNL1        0.0792
      2 C          62.9572   87.5819   12.3756 C.ar    1  UNL1        0.0374
      3 C          63.2206   88.8989   11.7078 C.ar    1  UNL1        0.0023
      4 C          64.0605   89.9340   12.3957 C.ar    1  UNL1        0.0181
      5 C          64.3239   91.2510   11.7279 C.ar    1  UNL1        0.0082
      6 C          65.1638   92.2860   12.4158 C.ar    1  UNL1        0.0347
      7 BR         65.4271   93.6031   11.7480 Br      1  UNL1       -0.0490
      8 C          65.7404   92.0040   13.7715 C.ar    1  UNL1        0.0082
      9 C          65.4770   90.6870   14.4394 C.ar    1  UNL1        0.0197
     10 C          64.6371   89.6520   13.7515 C.ar    1  UNL1        0.0844
     11 N          64.3737   88.3348   14.4193 N.ar    1  UNL1       -0.2119
     12 C          63.5338   87.2998   13.7314 C.ar    1  UNL1        0.2211
     13 O          63.2704   85.9827   14.3992 O.3     1  UNL1       -0.4563
     14 C          64.2532   85.4351   15.3913 C.3     1  UNL1        0.2542
     15 C          62.3292   82.8475   13.1091 C.ar    1  UNL1        0.1913
     16 C          61.9785   84.3007   12.9861 C.ar    1  UNL1        0.0394
     17 C          62.4680   85.0936   11.8107 C.ar    1  UNL1        0.0067
     18 C          63.3083   84.4333   10.7581 C.ar    1  UNL1        0.0984
     19 N          63.6590   82.9800   10.8810 N.ar    1  UNL1       -0.2079
     20 C          63.1695   82.1871   12.0565 C.ar    1  UNL1        0.2601
     21 C          60.7993   80.9914   14.0912 C.3     1  UNL1        0.2527
     22 O          61.8396   82.0546   14.2845 O.3     1  UNL1       -0.4667
     23 O          63.5202   80.7339   12.1794 O.3     1  UNL1       -0.4541
     24 C          62.8191   79.7185   11.3267 C.3     1  UNL1        0.2543
     25 C          60.9266   86.9650   10.8769 C.3     1  UNL1        0.1159
     26 O          60.2928   87.5446   12.1067 O.3     1  UNL1       -0.3820
     27 H          59.9942   88.4486   11.9210 H       1  UNL1        0.2107
     28 C          61.5604   86.3853    9.6472 C.ar    1  UNL1        0.0046
     29 C          63.0264   86.5801    9.3961 C.ar    1  UNL1       -0.0019
     30 C          63.6602   86.0004    8.1664 C.ar    1  UNL1        0.0021
     31 C          62.8281   85.2260    7.1877 C.ar    1  UNL1        0.0296
     32 C          61.3622   85.0313    7.4387 C.ar    1  UNL1        0.1399
     33 F          60.5300   84.2569    6.4600 F       1  UNL1       -0.2042
     34 C          60.7283   85.6110    8.6685 C.ar    1  UNL1        0.0276
     35 C          59.7359   87.3832   10.0661 C.3     1  UNL1        0.0491
     36 C          59.7123   88.7311    9.4085 C.3     1  UNL1        0.0750
     37 N          60.2887   89.9213   10.1166 N.3     1  UNL1       -0.2702
     38 C          61.6025   90.4937    9.6738 C.3     1  UNL1        0.0897
     39 C          59.5511   90.5389   11.2674 C.3     1  UNL1        0.0897
@<TRIPOS>BOND
     1    21    22    1
     2    22    15    1
     3    15    16   ar
     4    16    17   ar
     5     1    17    1
     6     1     2    1
     7     2     3   ar
     8     3     4   ar
     9     4     5   ar
    10     5     6   ar
    11     6     7    1
    12     6     8   ar
    13     8     9   ar
    14     9    10   ar
    15    10    11   ar
    16    11    12   ar
    17    12    13    1
    18    13    14    1
    19     1    25    1
    20    25    26    1
    21    25    35    1
    22    35    36    1
    23    36    37    1
    24    37    38    1
    25    37    39    1
    26    25    28    1
    27    28    29   ar
    28    29    30   ar
    29    30    31   ar
    30    31    32   ar
    31    32    33    1
    32    32    34   ar
    33    17    18   ar
    34    18    19   ar
    35    19    20   ar
    36    20    23    1
    37    23    24    1
    38    20    15   ar
    39    12     2   ar
    40    34    28   ar
    41    10     4   ar
    42    26    27    1
@<TRIPOS>MOLECULE
*****
 39 42 0 0 0
SMALL
GASTEIGER

@<TRIPOS>ATOM
      1 C          62.7371   88.6381   11.2961 C.3     1  UNL1        0.0792
      2 C          63.0468   87.6274   12.3604 C.ar    1  UNL1        0.0374
      3 C          63.0823   86.1669   12.0203 C.ar    1  UNL1        0.0023
      4 C          63.3921   85.1562   13.0845 C.ar    1  UNL1        0.0181
      5 C          63.4276   83.6958   12.7444 C.ar    1  UNL1        0.0082
      6 C          63.7374   82.6852   13.8087 C.ar    1  UNL1        0.0347
      7 BR         63.7729   81.2246   13.4685 Br      1  UNL1       -0.0490
      8 C          64.0116   83.1351   15.2131 C.ar    1  UNL1        0.0082
      9 C          63.9761   84.5955   15.5532 C.ar    1  UNL1        0.0197
     10 C          63.6664   85.6061   14.4890 C.ar    1  UNL1        0.0844
     11 N          63.6309   87.0667   14.8291 N.ar    1  UNL1       -0.2119
     12 C          63.3211   88.0772   13.7648 C.ar    1  UNL1        0.2211
     13 O          63.2856   89.5378   14.1050 O.3     1  UNL1       -0.4563
     14 C          63.3637   89.9764   15.5373 C.3     1  UNL1        0.2542
     15 C          64.8043   91.7784   12.5668 C.ar    1  UNL1        0.1913
     16 C          64.1293   90.4390   12.5484 C.ar    1  UNL1        0.0394
     17 C          63.4121   89.9774   11.3145 C.ar    1  UNL1        0.0067
     18 C          63.3699   90.8552   10.0989 C.ar    1  UNL1        0.0984
     19 N          64.0449   92.1947   10.1173 N.ar    1  UNL1       -0.2079
     20 C          64.7621   92.6563   11.3512 C.ar    1  UNL1        0.2601
     21 C          67.0128   92.1088   13.8947 C.3     1  UNL1        0.2527
     22 O          65.5215   92.2399   13.8007 O.3     1  UNL1       -0.4667
     23 O          65.4371   93.9956   11.3696 O.3     1  UNL1       -0.4541
     24 C          66.6870   94.2166   10.5703 C.3     1  UNL1        0.2543
     25 C          61.7523   88.3093   10.2135 C.3     1  UNL1        0.1159
     26 O          62.8358   87.6220    9.4366 O.3     1  UNL1       -0.3820
     27 H          62.5305   86.7423    9.1648 H       1  UNL1        0.2107
     28 C          60.6687   88.9966   10.9904 C.ar    1  UNL1        0.0046
     29 C          60.3188   90.4235   10.6881 C.ar    1  UNL1       -0.0019
     30 C          59.2353   91.1108   11.4649 C.ar    1  UNL1        0.0021
     31 C          58.5017   90.3712   12.5442 C.ar    1  UNL1        0.0296
     32 C          58.8516   88.9443   12.8465 C.ar    1  UNL1        0.1399
     33 F          58.1180   88.2047   13.9258 F       1  UNL1       -0.2042
     34 C          59.9351   88.2570   12.0696 C.ar    1  UNL1        0.0276
     35 C          60.7675   87.9805    9.1309 C.3     1  UNL1        0.0491
     36 C          60.3414   89.0394    8.1577 C.3     1  UNL1        0.0750
     37 N          59.2813   88.7397    7.1397 N.3     1  UNL1       -0.2702
     38 C          58.8968   89.7792    6.1290 C.3     1  UNL1        0.0897
     39 C          58.6056   87.4006    7.1324 C.3     1  UNL1        0.0897
@<TRIPOS>BOND
     1    21    22    1
     2    22    15    1
     3    15    16   ar
     4    16    17   ar
     5     1    17    1
     6     1     2    1
     7     2     3   ar
     8     3     4   ar
     9     4     5   ar
    10     5     6   ar
    11     6     7    1
    12     6     8   ar
    13     8     9   ar
    14     9    10   ar
    15    10    11   ar
    16    11    12   ar
    17    12    13    1
    18    13    14    1
    19     1    25    1
    20    25    26    1
    21    25    35    1
    22    35    36    1
    23    36    37    1
    24    37    38    1
    25    37    39    1
    26    25    28    1
    27    28    29   ar
    28    29    30   ar
    29    30    31   ar
    30    31    32   ar
    31    32    33    1
    32    32    34   ar
    33    17    18   ar
    34    18    19   ar
    35    19    20   ar
    36    20    23    1
    37    23    24    1
    38    20    15   ar
    39    12     2   ar
    40    34    28   ar
    41    10     4   ar
    42    26    27    1
