@<TRIPOS>MOLECULE
*****
 28 31 0 0 0
SMALL
GASTEIGER

@<TRIPOS>ATOM
      1 C          62.9112   85.7437   12.0862 C.2     1  UNL1       -0.0246
      2 C          63.5098   86.4863   13.2439 C.2     1  UNL1       -0.0421
      3 C          63.9350   85.4790   14.2708 C.3     1  UNL1        0.0480
      4 C          63.5991   84.1138   13.7478 C.ar    1  UNL1       -0.0184
      5 C          63.7877   82.7429   14.3265 C.ar    1  UNL1       -0.0040
      6 C          63.3435   81.5356   13.5552 C.ar    1  UNL1       -0.0003
      7 C          62.7108   81.6992   12.2050 C.ar    1  UNL1       -0.0000
      8 C          62.5222   83.0701   11.6263 C.ar    1  UNL1       -0.0006
      9 C          62.9664   84.2774   12.3977 C.ar    1  UNL1       -0.0079
     10 C          62.5183   85.6603    9.5193 C.3     1  UNL1        0.0111
     11 C          62.3550   86.3593   10.8365 C.3     1  UNL1        0.0634
     12 C          61.6356   87.6737   10.9039 C.ar    1  UNL1        0.0818
     13 C          62.1729   88.8617   10.1623 C.ar    1  UNL1        0.1139
     14 N          61.4534   90.1761   10.2297 N.ar    1  UNL1       -0.2394
     15 C          60.1966   90.3026   11.0387 C.ar    1  UNL1        0.1195
     16 C          59.6593   89.1147   11.7803 C.ar    1  UNL1        0.1191
     17 N          60.3788   87.8002   11.7129 N.ar    1  UNL1       -0.2446
     18 C          63.6574   87.9749   13.3551 C.3     1  UNL1        0.0394
     19 C          64.5258   88.5645   14.4267 C.3     1  UNL1        0.0768
     20 N          63.9387   89.5111   15.4314 N.3     1  UNL1       -0.2661
     21 C          63.0835   88.9859   16.5462 C.3     1  UNL1        0.0899
     22 C          64.2070   90.9827   15.3213 C.3     1  UNL1        0.1203
     23 C          65.0788   91.5058   14.2185 C.ar    1  UNL1        0.0943
     24 C          66.5582   91.6353   14.4293 C.ar    1  UNL1        0.1149
     25 N          67.4301   92.1583   13.3264 N.ar    1  UNL1       -0.2394
     26 C          66.8225   92.5519   12.0127 C.ar    1  UNL1        0.1195
     27 C          65.3431   92.4224   11.8019 C.ar    1  UNL1        0.1191
     28 N          64.4712   91.8993   12.9047 N.ar    1  UNL1       -0.2436
@<TRIPOS>BOND
     1    11    10    1
     2    11     1    1
     3     1     2    2
     4     2    18    1
     5    18    19    1
     6    19    20    1
     7    20    21    1
     8    20    22    1
     9    22    23    1
    10    23    24   ar
    11    24    25   ar
    12    25    26   ar
    13    26    27   ar
    14    27    28   ar
    15     2     3    1
    16     3     4    1
    17     4     5   ar
    18     5     6   ar
    19     6     7   ar
    20     7     8   ar
    21     8     9   ar
    22    11    12    1
    23    12    13   ar
    24    13    14   ar
    25    14    15   ar
    26    15    16   ar
    27    16    17   ar
    28     9     1    1
    29    17    12   ar
    30    28    23   ar
    31     9     4   ar
@<TRIPOS>MOLECULE
*****
 28 31 0 0 0
SMALL
GASTEIGER

@<TRIPOS>ATOM
      1 C          61.4347   88.2375   10.7822 C.2     1  UNL1       -0.0246
      2 C          62.2143   87.0135   11.1618 C.2     1  UNL1       -0.0421
      3 C          61.9779   85.9691   10.1114 C.3     1  UNL1        0.0480
      4 C          61.0522   86.5476    9.0826 C.ar    1  UNL1       -0.0184
      5 C          60.4716   85.9789    7.8219 C.ar    1  UNL1       -0.0040
      6 C          59.5554   86.8121    6.9757 C.ar    1  UNL1       -0.0003
      7 C          59.2196   88.2141    7.3903 C.ar    1  UNL1       -0.0000
      8 C          59.8002   88.7828    8.6510 C.ar    1  UNL1       -0.0006
      9 C          60.7165   87.9495    9.4972 C.ar    1  UNL1       -0.0079
     10 C          60.1076   89.9467   12.2201 C.3     1  UNL1        0.0111
     11 C          61.3825   89.5236   11.5523 C.3     1  UNL1        0.0634
     12 C          62.6049   90.3867   11.6548 C.ar    1  UNL1        0.0818
     13 C          63.1146   91.1119   10.4447 C.ar    1  UNL1        0.1139
     14 N          64.3372   91.9750   10.5472 N.ar    1  UNL1       -0.2394
     15 C          65.0500   92.1129   11.8597 C.ar    1  UNL1        0.1195
     16 C          64.5404   91.3877   13.0699 C.ar    1  UNL1        0.1191
     17 N          63.3178   90.5246   12.9674 N.ar    1  UNL1       -0.2446
     18 C          63.0785   86.8608   12.3783 C.3     1  UNL1        0.0394
     19 C          63.3248   85.4991   12.9572 C.3     1  UNL1        0.0768
     20 N          64.0451   85.3594   14.2655 N.3     1  UNL1       -0.2661
     21 C          64.6006   86.5735   14.9492 C.3     1  UNL1        0.0899
     22 C          64.2098   84.0056   14.8901 C.3     1  UNL1        0.1203
     23 C          63.5328   82.8124   14.2836 C.ar    1  UNL1        0.0943
     24 C          64.1591   82.1070   13.1174 C.ar    1  UNL1        0.1149
     25 N          63.4821   80.9137   12.5109 N.ar    1  UNL1       -0.2394
     26 C          62.1788   80.4259   13.0706 C.ar    1  UNL1        0.1195
     27 C          61.5525   81.1313   14.2369 C.ar    1  UNL1        0.1191
     28 N          62.2295   82.3245   14.8433 N.ar    1  UNL1       -0.2436
@<TRIPOS>BOND
     1    11    10    1
     2    11     1    1
     3     1     2    2
     4     2    18    1
     5    18    19    1
     6    19    20    1
     7    20    21    1
     8    20    22    1
     9    22    23    1
    10    23    24   ar
    11    24    25   ar
    12    25    26   ar
    13    26    27   ar
    14    27    28   ar
    15     2     3    1
    16     3     4    1
    17     4     5   ar
    18     5     6   ar
    19     6     7   ar
    20     7     8   ar
    21     8     9   ar
    22    11    12    1
    23    12    13   ar
    24    13    14   ar
    25    14    15   ar
    26    15    16   ar
    27    16    17   ar
    28     9     1    1
    29    17    12   ar
    30    28    23   ar
    31     9     4   ar
@<TRIPOS>MOLECULE
*****
 28 31 0 0 0
SMALL
GASTEIGER

@<TRIPOS>ATOM
      1 C          63.7269   89.1827   13.5340 C.2     1  UNL1       -0.0246
      2 C          63.9464   87.7121   13.7318 C.2     1  UNL1       -0.0421
      3 C          63.3258   86.9908   12.5722 C.3     1  UNL1        0.0480
      4 C          62.7228   88.0156   11.6578 C.ar    1  UNL1       -0.0184
      5 C          61.9801   87.8903   10.3607 C.ar    1  UNL1       -0.0040
      6 C          61.4853   89.1196    9.6580 C.ar    1  UNL1       -0.0003
      7 C          61.7332   90.4743   10.2524 C.ar    1  UNL1       -0.0000
      8 C          62.4759   90.5997   11.5495 C.ar    1  UNL1       -0.0006
      9 C          62.9708   89.3703   12.2522 C.ar    1  UNL1       -0.0079
     10 C          63.5947   90.3897   15.8310 C.3     1  UNL1        0.0111
     11 C          64.1835   90.2741   14.4561 C.3     1  UNL1        0.0634
     12 C          65.2289   91.2500   14.0036 C.ar    1  UNL1        0.0818
     13 C          66.6077   91.1988   14.5921 C.ar    1  UNL1        0.1139
     14 N          67.6530   92.1747   14.1395 N.ar    1  UNL1       -0.2394
     15 C          67.3196   93.2018   13.0985 C.ar    1  UNL1        0.1195
     16 C          65.9408   93.2531   12.5099 C.ar    1  UNL1        0.1191
     17 N          64.8955   92.2772   12.9625 N.ar    1  UNL1       -0.2446
     18 C          64.6609   87.0747   14.8864 C.3     1  UNL1        0.0394
     19 C          64.3576   85.6553   15.2649 C.3     1  UNL1        0.0768
     20 N          63.1131   85.3350   16.0386 N.3     1  UNL1       -0.2661
     21 C          62.6916   86.2141   17.1787 C.3     1  UNL1        0.0899
     22 C          62.2901   84.1356   15.6724 C.3     1  UNL1        0.1203
     23 C          62.6713   83.2977   14.4880 C.ar    1  UNL1        0.0943
     24 C          62.4327   83.8103   13.0987 C.ar    1  UNL1        0.1149
     25 N          62.8139   82.9725   11.9144 N.ar    1  UNL1       -0.2394
     26 C          63.4336   81.6220   12.1193 C.ar    1  UNL1        0.1195
     27 C          63.6722   81.1093   13.5087 C.ar    1  UNL1        0.1191
     28 N          63.2910   81.9472   14.6930 N.ar    1  UNL1       -0.2436
@<TRIPOS>BOND
     1    11    10    1
     2    11     1    1
     3     1     2    2
     4     2    18    1
     5    18    19    1
     6    19    20    1
     7    20    21    1
     8    20    22    1
     9    22    23    1
    10    23    24   ar
    11    24    25   ar
    12    25    26   ar
    13    26    27   ar
    14    27    28   ar
    15     2     3    1
    16     3     4    1
    17     4     5   ar
    18     5     6   ar
    19     6     7   ar
    20     7     8   ar
    21     8     9   ar
    22    11    12    1
    23    12    13   ar
    24    13    14   ar
    25    14    15   ar
    26    15    16   ar
    27    16    17   ar
    28     9     1    1
    29    17    12   ar
    30    28    23   ar
    31     9     4   ar
@<TRIPOS>MOLECULE
*****
 28 31 0 0 0
SMALL
GASTEIGER

@<TRIPOS>ATOM
      1 C          63.3671   87.4080   12.8435 C.2     1  UNL1       -0.0246
      2 C          63.5278   88.8990   12.8121 C.2     1  UNL1       -0.0421
      3 C          62.8432   89.4131   11.5804 C.3     1  UNL1        0.0480
      4 C          62.2594   88.2398   10.8506 C.ar    1  UNL1       -0.0184
      5 C          61.4748   88.1397    9.5761 C.ar    1  UNL1       -0.0040
      6 C          61.0141   86.8003    9.0823 C.ar    1  UNL1       -0.0003
      7 C          61.3379   85.5611    9.8630 C.ar    1  UNL1       -0.0000
      8 C          62.1225   85.6612   11.1375 C.ar    1  UNL1       -0.0006
      9 C          62.5832   87.0005   11.6313 C.ar    1  UNL1       -0.0079
     10 C          64.7344   87.0315   15.0205 C.3     1  UNL1        0.0111
     11 C          63.8973   86.4862   13.9015 C.3     1  UNL1        0.0634
     12 C          63.5904   85.0193   13.8405 C.ar    1  UNL1        0.0818
     13 C          64.5089   84.0909   13.1026 C.ar    1  UNL1        0.1139
     14 N          64.2019   82.6239   13.0417 N.ar    1  UNL1       -0.2394
     15 C          62.9766   82.0852   13.7187 C.ar    1  UNL1        0.1195
     16 C          62.0581   83.0136   14.4567 C.ar    1  UNL1        0.1191
     17 N          62.3650   84.4806   14.5176 N.ar    1  UNL1       -0.2446
     18 C          64.2468   89.7301   13.8330 C.3     1  UNL1        0.0394
     19 C          64.0937   91.2222   13.8282 C.3     1  UNL1        0.0768
     20 N          65.0779   92.0748   13.0835 N.3     1  UNL1       -0.2661
     21 C          66.1509   92.8091   13.8315 C.3     1  UNL1        0.0899
     22 C          64.9891   92.1930   11.5908 C.3     1  UNL1        0.1203
     23 C          65.9345   93.0933   10.8522 C.ar    1  UNL1        0.0943
     24 C          67.2373   92.5545   10.3400 C.ar    1  UNL1        0.1149
     25 N          68.1828   93.4547    9.6014 N.ar    1  UNL1       -0.2394
     26 C          67.8255   94.8938    9.3749 C.ar    1  UNL1        0.1195
     27 C          66.5227   95.4326    9.8871 C.ar    1  UNL1        0.1191
     28 N          65.5773   94.5324   10.6257 N.ar    1  UNL1       -0.2436
@<TRIPOS>BOND
     1    11    10    1
     2    11     1    1
     3     1     2    2
     4     2    18    1
     5    18    19    1
     6    19    20    1
     7    20    21    1
     8    20    22    1
     9    22    23    1
    10    23    24   ar
    11    24    25   ar
    12    25    26   ar
    13    26    27   ar
    14    27    28   ar
    15     2     3    1
    16     3     4    1
    17     4     5   ar
    18     5     6   ar
    19     6     7   ar
    20     7     8   ar
    21     8     9   ar
    22    11    12    1
    23    12    13   ar
    24    13    14   ar
    25    14    15   ar
    26    15    16   ar
    27    16    17   ar
    28     9     1    1
    29    17    12   ar
    30    28    23   ar
    31     9     4   ar
@<TRIPOS>MOLECULE
*****
 28 31 0 0 0
SMALL
GASTEIGER

@<TRIPOS>ATOM
      1 C          63.7087   84.7509   13.4349 C.2     1  UNL1       -0.0246
      2 C          63.0107   85.4470   12.3044 C.2     1  UNL1       -0.0421
      3 C          62.3686   84.4012   11.4419 C.3     1  UNL1        0.0480
      4 C          62.6699   83.0587   12.0393 C.ar    1  UNL1       -0.0184
      5 C          62.2971   81.6673   11.6209 C.ar    1  UNL1       -0.0040
      6 C          62.7524   80.4922   12.4342 C.ar    1  UNL1       -0.0003
      7 C          63.5807   80.7083   13.6660 C.ar    1  UNL1       -0.0000
      8 C          63.9535   82.0997   14.0844 C.ar    1  UNL1       -0.0006
      9 C          63.4981   83.2748   13.2711 C.ar    1  UNL1       -0.0079
     10 C          65.9804   85.3496   14.5447 C.3     1  UNL1        0.0111
     11 C          64.4817   85.4144   14.5359 C.3     1  UNL1        0.0634
     12 C          63.7562   86.1426   15.6282 C.ar    1  UNL1        0.0818
     13 C          62.9532   85.3754   16.6364 C.ar    1  UNL1        0.1139
     14 N          62.2277   86.1037   17.7287 N.ar    1  UNL1       -0.2394
     15 C          62.3052   87.5993   17.8129 C.ar    1  UNL1        0.1195
     16 C          63.1083   88.3667   16.8048 C.ar    1  UNL1        0.1191
     17 N          63.8338   87.6383   15.7125 N.ar    1  UNL1       -0.2446
     18 C          62.9630   86.9289   12.0764 C.3     1  UNL1        0.0394
     19 C          62.3212   87.4766   10.8362 C.3     1  UNL1        0.0768
     20 N          61.6931   88.8386   10.8557 N.3     1  UNL1       -0.2661
     21 C          60.8542   89.2943    9.6986 C.3     1  UNL1        0.0899
     22 C          61.9039   89.7450   12.0321 C.3     1  UNL1        0.1203
     23 C          63.0831   90.6715   12.0633 C.ar    1  UNL1        0.0943
     24 C          63.7537   90.9884   13.3671 C.ar    1  UNL1        0.1149
     25 N          64.9330   91.9149   13.3983 N.ar    1  UNL1       -0.2394
     26 C          65.4416   92.5246   12.1257 C.ar    1  UNL1        0.1195
     27 C          64.7710   92.2077   10.8219 C.ar    1  UNL1        0.1191
     28 N          63.5918   91.2812   10.7907 N.ar    1  UNL1       -0.2436
@<TRIPOS>BOND
     1    11    10    1
     2    11     1    1
     3     1     2    2
     4     2    18    1
     5    18    19    1
     6    19    20    1
     7    20    21    1
     8    20    22    1
     9    22    23    1
    10    23    24   ar
    11    24    25   ar
    12    25    26   ar
    13    26    27   ar
    14    27    28   ar
    15     2     3    1
    16     3     4    1
    17     4     5   ar
    18     5     6   ar
    19     6     7   ar
    20     7     8   ar
    21     8     9   ar
    22    11    12    1
    23    12    13   ar
    24    13    14   ar
    25    14    15   ar
    26    15    16   ar
    27    16    17   ar
    28     9     1    1
    29    17    12   ar
    30    28    23   ar
    31     9     4   ar
@<TRIPOS>MOLECULE
*****
 28 31 0 0 0
SMALL
GASTEIGER

@<TRIPOS>ATOM
      1 C          64.7369   91.6772   12.5681 C.2     1  UNL1       -0.0246
      2 C          63.8794   90.6311   13.2164 C.2     1  UNL1       -0.0421
      3 C          64.2512   90.5613   14.6679 C.3     1  UNL1        0.0480
      4 C          65.3386   91.5642   14.9166 C.ar    1  UNL1       -0.0184
      5 C          66.0942   91.9386   16.1571 C.ar    1  UNL1       -0.0040
      6 C          67.1499   93.0026   16.0998 C.ar    1  UNL1       -0.0003
      7 C          67.4501   93.6922   14.8020 C.ar    1  UNL1       -0.0000
      8 C          66.6945   93.3178   13.5615 C.ar    1  UNL1       -0.0006
      9 C          65.6388   92.2539   13.6188 C.ar    1  UNL1       -0.0079
     10 C          63.6111   91.5582   10.2295 C.3     1  UNL1        0.0111
     11 C          64.6992   92.0764   11.1227 C.3     1  UNL1        0.0634
     12 C          65.7494   92.9939   10.5703 C.ar    1  UNL1        0.0818
     13 C          67.0783   92.4430   10.1451 C.ar    1  UNL1        0.1139
     14 N          68.1285   93.3606    9.5928 N.ar    1  UNL1       -0.2394
     15 C          67.8500   94.8290    9.4656 C.ar    1  UNL1        0.1195
     16 C          66.5212   95.3799    9.8909 C.ar    1  UNL1        0.1191
     17 N          65.4710   94.4624   10.4432 N.ar    1  UNL1       -0.2446
     18 C          62.8336   89.8007   12.5333 C.3     1  UNL1        0.0394
     19 C          63.1087   88.3608   12.2156 C.3     1  UNL1        0.0768
     20 N          62.2487   87.6338   11.2248 N.3     1  UNL1       -0.2661
     21 C          62.0013   88.2264    9.8691 C.3     1  UNL1        0.0899
     22 C          61.6360   86.3141   11.5895 C.3     1  UNL1        0.1203
     23 C          62.5097   85.1791   12.0351 C.ar    1  UNL1        0.0943
     24 C          63.0964   84.2417   11.0217 C.ar    1  UNL1        0.1149
     25 N          63.9700   83.1068   11.4672 N.ar    1  UNL1       -0.2394
     26 C          64.2570   82.9092   12.9262 C.ar    1  UNL1        0.1195
     27 C          63.6703   83.8465   13.9396 C.ar    1  UNL1        0.1191
     28 N          62.7966   84.9815   13.4940 N.ar    1  UNL1       -0.2436
@<TRIPOS>BOND
     1    11    10    1
     2    11     1    1
     3     1     2    2
     4     2    18    1
     5    18    19    1
     6    19    20    1
     7    20    21    1
     8    20    22    1
     9    22    23    1
    10    23    24   ar
    11    24    25   ar
    12    25    26   ar
    13    26    27   ar
    14    27    28   ar
    15     2     3    1
    16     3     4    1
    17     4     5   ar
    18     5     6   ar
    19     6     7   ar
    20     7     8   ar
    21     8     9   ar
    22    11    12    1
    23    12    13   ar
    24    13    14   ar
    25    14    15   ar
    26    15    16   ar
    27    16    17   ar
    28     9     1    1
    29    17    12   ar
    30    28    23   ar
    31     9     4   ar
@<TRIPOS>MOLECULE
*****
 28 31 0 0 0
SMALL
GASTEIGER

@<TRIPOS>ATOM
      1 C          63.4191   86.9755   13.0918 C.2     1  UNL1       -0.0246
      2 C          63.6505   88.4414   13.3105 C.2     1  UNL1       -0.0421
      3 C          63.0454   89.1834   12.1559 C.3     1  UNL1        0.0480
      4 C          62.4400   88.1762   11.2236 C.ar    1  UNL1       -0.0184
      5 C          61.7083   88.3254    9.9227 C.ar    1  UNL1       -0.0040
      6 C          61.2076   87.1099    9.2003 C.ar    1  UNL1       -0.0003
      7 C          61.4385   85.7454    9.7788 C.ar    1  UNL1       -0.0000
      8 C          62.1702   85.5962   11.0797 C.ar    1  UNL1       -0.0006
      9 C          62.6710   86.8117   11.8021 C.ar    1  UNL1       -0.0079
     10 C          64.6484   86.1824   15.2390 C.3     1  UNL1        0.0111
     11 C          63.8586   85.8680   14.0030 C.3     1  UNL1        0.0634
     12 C          63.5084   84.4461   13.6783 C.ar    1  UNL1        0.0818
     13 C          62.3130   83.8034   14.3170 C.ar    1  UNL1        0.1139
     14 N          61.9629   82.3815   13.9922 N.ar    1  UNL1       -0.2394
     15 C          62.8081   81.6022   13.0288 C.ar    1  UNL1        0.1195
     16 C          64.0036   82.2448   12.3901 C.ar    1  UNL1        0.1191
     17 N          64.3537   83.6667   12.7148 N.ar    1  UNL1       -0.2446
     18 C          64.3621   89.0570   14.4787 C.3     1  UNL1        0.0394
     19 C          63.8685   90.3477   15.0622 C.3     1  UNL1        0.0768
     20 N          64.8413   91.4380   15.4011 N.3     1  UNL1       -0.2661
     21 C          64.6104   92.3011   16.6061 C.3     1  UNL1        0.0899
     22 C          66.0448   91.6654   14.5352 C.3     1  UNL1        0.1203
     23 C          65.9264   92.4902   13.2880 C.ar    1  UNL1        0.0943
     24 C          66.4650   93.8899   13.2605 C.ar    1  UNL1        0.1149
     25 N          66.3466   94.7147   12.0133 N.ar    1  UNL1       -0.2394
     26 C          65.6895   94.1399   10.7935 C.ar    1  UNL1        0.1195
     27 C          65.1509   92.7402   10.8210 C.ar    1  UNL1        0.1191
     28 N          65.2693   91.9154   12.0682 N.ar    1  UNL1       -0.2436
@<TRIPOS>BOND
     1    11    10    1
     2    11     1    1
     3     1     2    2
     4     2    18    1
     5    18    19    1
     6    19    20    1
     7    20    21    1
     8    20    22    1
     9    22    23    1
    10    23    24   ar
    11    24    25   ar
    12    25    26   ar
    13    26    27   ar
    14    27    28   ar
    15     2     3    1
    16     3     4    1
    17     4     5   ar
    18     5     6   ar
    19     6     7   ar
    20     7     8   ar
    21     8     9   ar
    22    11    12    1
    23    12    13   ar
    24    13    14   ar
    25    14    15   ar
    26    15    16   ar
    27    16    17   ar
    28     9     1    1
    29    17    12   ar
    30    28    23   ar
    31     9     4   ar
@<TRIPOS>MOLECULE
*****
 28 31 0 0 0
SMALL
GASTEIGER

@<TRIPOS>ATOM
      1 C          63.4234   90.0413   12.6326 C.2     1  UNL1       -0.0246
      2 C          64.0377   89.6370   13.9400 C.2     1  UNL1       -0.0421
      3 C          65.2449   90.4970   14.1705 C.3     1  UNL1        0.0480
      4 C          65.3767   91.4328   13.0055 C.ar    1  UNL1       -0.0184
      5 C          66.3763   92.5049   12.6875 C.ar    1  UNL1       -0.0040
      6 C          66.2502   93.2954   11.4190 C.ar    1  UNL1       -0.0003
      7 C          65.1245   93.0137   10.4685 C.ar    1  UNL1       -0.0000
      8 C          64.1248   91.9416   10.7866 C.ar    1  UNL1       -0.0006
      9 C          64.2510   91.1511   12.0551 C.ar    1  UNL1       -0.0079
     10 C          60.8789   90.1494   12.1186 C.3     1  UNL1        0.0111
     11 C          62.1969   89.4411   12.0117 C.3     1  UNL1        0.0634
     12 C          62.2883   88.1328   11.2840 C.ar    1  UNL1        0.0818
     13 C          62.2131   88.1007    9.7862 C.ar    1  UNL1        0.1139
     14 N          62.3044   86.7923    9.0585 N.ar    1  UNL1       -0.2394
     15 C          62.4710   85.5158    9.8284 C.ar    1  UNL1        0.1195
     16 C          62.5462   85.5478   11.3262 C.ar    1  UNL1        0.1191
     17 N          62.4549   86.8562   12.0540 N.ar    1  UNL1       -0.2446
     18 C          63.5333   88.5616   14.8560 C.3     1  UNL1        0.0394
     19 C          64.2626   87.2543   14.9509 C.3     1  UNL1        0.0768
     20 N          63.8146   86.2154   15.9357 N.3     1  UNL1       -0.2661
     21 C          62.7904   86.5602   16.9760 C.3     1  UNL1        0.0899
     22 C          64.3909   84.8316   15.8804 C.3     1  UNL1        0.1203
     23 C          63.8468   83.8311   14.9042 C.ar    1  UNL1        0.0943
     24 C          64.5189   83.6355   13.5776 C.ar    1  UNL1        0.1149
     25 N          63.9748   82.6349   12.6015 N.ar    1  UNL1       -0.2394
     26 C          62.7586   81.8300   12.9519 C.ar    1  UNL1        0.1195
     27 C          62.0865   82.0256   14.2786 C.ar    1  UNL1        0.1191
     28 N          62.6306   83.0261   15.2547 N.ar    1  UNL1       -0.2436
@<TRIPOS>BOND
     1    11    10    1
     2    11     1    1
     3     1     2    2
     4     2    18    1
     5    18    19    1
     6    19    20    1
     7    20    21    1
     8    20    22    1
     9    22    23    1
    10    23    24   ar
    11    24    25   ar
    12    25    26   ar
    13    26    27   ar
    14    27    28   ar
    15     2     3    1
    16     3     4    1
    17     4     5   ar
    18     5     6   ar
    19     6     7   ar
    20     7     8   ar
    21     8     9   ar
    22    11    12    1
    23    12    13   ar
    24    13    14   ar
    25    14    15   ar
    26    15    16   ar
    27    16    17   ar
    28     9     1    1
    29    17    12   ar
    30    28    23   ar
    31     9     4   ar
@<TRIPOS>MOLECULE
*****
 28 31 0 0 0
SMALL
GASTEIGER

@<TRIPOS>ATOM
      1 C          62.1189   86.3263   10.4008 C.2     1  UNL1       -0.0246
      2 C          62.3795   87.5764   11.1878 C.2     1  UNL1       -0.0421
      3 C          61.5162   88.6666   10.6254 C.3     1  UNL1        0.0480
      4 C          60.7220   88.0902    9.4909 C.ar    1  UNL1       -0.0184
      5 C          59.7078   88.6956    8.5664 C.ar    1  UNL1       -0.0040
      6 C          59.0661   87.8546    7.5030 C.ar    1  UNL1       -0.0003
      7 C          59.4385   86.4082    7.3642 C.ar    1  UNL1       -0.0000
      8 C          60.4527   85.8029    8.2887 C.ar    1  UNL1       -0.0006
      9 C          61.0945   86.6439    9.3521 C.ar    1  UNL1       -0.0079
     10 C          63.5822   84.3633    9.5318 C.3     1  UNL1        0.0111
     11 C          62.7685   84.9928   10.6235 C.3     1  UNL1        0.0634
     12 C          62.6046   84.2887   11.9377 C.ar    1  UNL1        0.0818
     13 C          62.5664   82.7899   11.9860 C.ar    1  UNL1        0.1139
     14 N          62.4024   82.0858   13.3003 N.ar    1  UNL1       -0.2394
     15 C          62.2766   82.8804   14.5663 C.ar    1  UNL1        0.1195
     16 C          62.3147   84.3792   14.5180 C.ar    1  UNL1        0.1191
     17 N          62.4787   85.0833   13.2038 N.ar    1  UNL1       -0.2446
     18 C          63.3356   87.7125   12.3356 C.3     1  UNL1        0.0394
     19 C          63.5460   89.0496   12.9820 C.3     1  UNL1        0.0768
     20 N          64.1418   89.1329   14.3561 N.3     1  UNL1       -0.2661
     21 C          64.2302   87.9035   15.2110 C.3     1  UNL1        0.0899
     22 C          64.6491   90.4455   14.8752 C.3     1  UNL1        0.1203
     23 C          65.4141   91.3649   13.9700 C.ar    1  UNL1        0.0943
     24 C          66.8868   91.5641   14.1741 C.ar    1  UNL1        0.1149
     25 N          67.6518   92.4835   13.2688 N.ar    1  UNL1       -0.2394
     26 C          66.9442   93.2037   12.1596 C.ar    1  UNL1        0.1195
     27 C          65.4716   93.0046   11.9555 C.ar    1  UNL1        0.1191
     28 N          64.7065   92.0852   12.8608 N.ar    1  UNL1       -0.2436
@<TRIPOS>BOND
     1    11    10    1
     2    11     1    1
     3     1     2    2
     4     2    18    1
     5    18    19    1
     6    19    20    1
     7    20    21    1
     8    20    22    1
     9    22    23    1
    10    23    24   ar
    11    24    25   ar
    12    25    26   ar
    13    26    27   ar
    14    27    28   ar
    15     2     3    1
    16     3     4    1
    17     4     5   ar
    18     5     6   ar
    19     6     7   ar
    20     7     8   ar
    21     8     9   ar
    22    11    12    1
    23    12    13   ar
    24    13    14   ar
    25    14    15   ar
    26    15    16   ar
    27    16    17   ar
    28     9     1    1
    29    17    12   ar
    30    28    23   ar
    31     9     4   ar
