@<TRIPOS>MOLECULE
*****
 27 30 0 0 0
SMALL
GASTEIGER

@<TRIPOS>ATOM
      1 C          63.3650   81.8969   12.2625 C.2     1  UNL1        0.0919
      2 C          63.6582   81.3990   13.6467 C.2     1  UNL1        0.0183
      3 C          63.8620   82.3750   14.7674 C.2     1  UNL1        0.0511
      4 C          63.7725   83.8489   14.5039 C.2     1  UNL1        0.2322
      5 N          63.9259   85.0403   15.4022 N.2     1  UNL1       -0.0308
      6 C          63.7275   86.2746   14.5732 C.2     1  UNL1        0.3752
      7 N          63.4514   85.8460   13.1625 N.2     1  UNL1       -0.0347
      8 C          63.4793   84.3468   13.1197 C.2     1  UNL1        0.2191
      9 C          63.2755   83.3708   11.9990 C.3     1  UNL1        0.1226
     10 C          63.7935   87.6891   15.0681 C.ar    1  UNL1        0.0885
     11 C          63.1909   88.0487   16.3938 C.ar    1  UNL1        0.0086
     12 C          63.2569   89.4631   16.8888 C.ar    1  UNL1        0.0116
     13 C          63.9254   90.5180   16.0579 C.ar    1  UNL1        0.0577
     14 CL         63.9914   91.9325   16.5528 Cl      1  UNL1       -0.0822
     15 C          64.5280   90.1583   14.7322 C.ar    1  UNL1        0.0108
     16 C          64.4620   88.7439   14.2372 C.ar    1  UNL1        0.0085
     17 C          65.1965   91.2133   13.9013 C.ar    1  UNL1        0.0008
     18 C          64.5595   91.6787   12.6256 C.ar    1  UNL1        0.0000
     19 C          65.2281   92.7335   11.7948 C.ar    1  UNL1        0.0000
     20 C          66.5336   93.3230   12.2397 C.ar    1  UNL1        0.0000
     21 C          67.1707   92.8576   13.5155 C.ar    1  UNL1        0.0000
     22 C          66.5021   91.8027   14.3462 C.ar    1  UNL1        0.0000
     23 S          63.1612   80.9209   11.1419 S.O2    1  UNL1        0.0054
     24 O          63.6995   81.9267   10.1680 O.2     1  UNL1       -0.1689
     25 O          62.6229   79.9150   12.1158 O.2     1  UNL1       -0.1689
     26 C          62.7512   78.4899   10.3220 C.3     1  UNL1        0.0276
     27 C          62.9574   79.9449   10.0212 C.3     1  UNL1        0.1556
@<TRIPOS>BOND
     1    26    27    1
     2    27    23    1
     3    23    24    2
     4    23    25    2
     5    23     1    1
     6     1     2    2
     7     2     3    1
     8     3     4    2
     9     4     5    1
    10     5     6    2
    11     6    10    1
    12    10    11   ar
    13    11    12   ar
    14    12    13   ar
    15    13    14    1
    16    13    15   ar
    17    15    17    1
    18    17    18   ar
    19    18    19   ar
    20    19    20   ar
    21    20    21   ar
    22    21    22   ar
    23    15    16   ar
    24     6     7    1
    25     7     8    2
    26     8     9    1
    27     9     1    1
    28     8     4    1
    29    16    10   ar
    30    22    17   ar
@<TRIPOS>MOLECULE
*****
 27 30 0 0 0
SMALL
GASTEIGER

@<TRIPOS>ATOM
      1 C          62.6206   84.1493   13.3132 C.2     1  UNL1        0.0919
      2 C          62.0198   84.6559   12.0356 C.2     1  UNL1        0.0183
      3 C          62.2307   86.0821   11.6214 C.2     1  UNL1        0.0511
      4 C          63.0423   87.0016   12.4848 C.2     1  UNL1        0.2322
      5 N          63.4181   88.4462   12.3368 N.2     1  UNL1       -0.0308
      6 C          64.2513   88.8324   13.5229 C.2     1  UNL1        0.3752
      7 N          64.3904   87.6265   14.4040 N.2     1  UNL1       -0.0347
      8 C          63.6432   86.4950   13.7624 C.2     1  UNL1        0.2191
      9 C          63.4323   85.0688   14.1766 C.3     1  UNL1        0.1226
     10 C          64.8416   90.1868   13.7822 C.ar    1  UNL1        0.0885
     11 C          64.9516   90.7004   15.1873 C.ar    1  UNL1        0.0086
     12 C          65.5419   92.0547   15.4467 C.ar    1  UNL1        0.0116
     13 C          66.0223   92.8954   14.3011 C.ar    1  UNL1        0.0577
     14 CL         66.6127   94.2497   14.5604 Cl      1  UNL1       -0.0822
     15 C          65.9123   92.3817   12.8960 C.ar    1  UNL1        0.0108
     16 C          65.3220   91.0274   12.6366 C.ar    1  UNL1        0.0085
     17 C          66.3927   93.2225   11.7504 C.ar    1  UNL1        0.0008
     18 C          67.1924   92.5982   10.6456 C.ar    1  UNL1        0.0000
     19 C          67.6728   93.4389    9.5000 C.ar    1  UNL1        0.0000
     20 C          67.3534   94.9040    9.4593 C.ar    1  UNL1        0.0000
     21 C          66.5537   95.5283   10.5641 C.ar    1  UNL1        0.0000
     22 C          66.0734   94.6875   11.7097 C.ar    1  UNL1        0.0000
     23 S          62.4098   82.7231   13.7273 S.O2    1  UNL1        0.0054
     24 O          62.4063   82.3052   12.2867 O.2     1  UNL1       -0.1689
     25 O          62.4133   83.1409   15.1679 O.2     1  UNL1       -0.1689
     26 C          60.8183   80.7107   14.1366 C.3     1  UNL1        0.0276
     27 C          62.1990   81.2969   14.1415 C.3     1  UNL1        0.1556
@<TRIPOS>BOND
     1    26    27    1
     2    27    23    1
     3    23    24    2
     4    23    25    2
     5    23     1    1
     6     1     2    2
     7     2     3    1
     8     3     4    2
     9     4     5    1
    10     5     6    2
    11     6    10    1
    12    10    11   ar
    13    11    12   ar
    14    12    13   ar
    15    13    14    1
    16    13    15   ar
    17    15    17    1
    18    17    18   ar
    19    18    19   ar
    20    19    20   ar
    21    20    21   ar
    22    21    22   ar
    23    15    16   ar
    24     6     7    1
    25     7     8    2
    26     8     9    1
    27     9     1    1
    28     8     4    1
    29    16    10   ar
    30    22    17   ar
@<TRIPOS>MOLECULE
*****
 27 30 0 0 0
SMALL
GASTEIGER

@<TRIPOS>ATOM
      1 C          62.7960   81.5090   12.6785 C.2     1  UNL1        0.0919
      2 C          62.8534   81.6861   14.1669 C.2     1  UNL1        0.0183
      3 C          62.9984   83.0589   14.7538 C.2     1  UNL1        0.0511
      4 C          63.0859   84.2546   13.8523 C.2     1  UNL1        0.2322
      5 N          63.2314   85.7196   14.1394 N.2     1  UNL1       -0.0308
      6 C          63.2639   86.4480   12.8285 C.2     1  UNL1        0.3752
      7 N          63.1385   85.4331   11.7311 N.2     1  UNL1       -0.0347
      8 C          63.0286   84.0774   12.3639 C.2     1  UNL1        0.2191
      9 C          62.8836   82.7046   11.7770 C.3     1  UNL1        0.1226
     10 C          63.3982   87.9309   12.6469 C.ar    1  UNL1        0.0885
     11 C          62.7281   88.6083   11.4884 C.ar    1  UNL1        0.0086
     12 C          62.8623   90.0912   11.3067 C.ar    1  UNL1        0.0116
     13 C          63.6666   90.8966   12.2836 C.ar    1  UNL1        0.0577
     14 CL         63.8009   92.3796   12.1020 Cl      1  UNL1       -0.0822
     15 C          64.3367   90.2192   13.4421 C.ar    1  UNL1        0.0108
     16 C          64.2025   88.7364   13.6237 C.ar    1  UNL1        0.0085
     17 C          65.1411   91.0248   14.4189 C.ar    1  UNL1        0.0008
     18 C          66.5926   91.2940   14.1534 C.ar    1  UNL1        0.0000
     19 C          67.3969   92.0995   15.1302 C.ar    1  UNL1        0.0000
     20 C          66.7496   92.6358   16.3726 C.ar    1  UNL1        0.0000
     21 C          65.2981   92.3665   16.6382 C.ar    1  UNL1        0.0000
     22 C          64.4938   91.5610   15.6613 C.ar    1  UNL1        0.0000
     23 S          62.6511   80.1362   12.0916 S.O2    1  UNL1        0.0054
     24 O          63.0785   80.6630   10.7538 O.2     1  UNL1       -0.1689
     25 O          62.2236   79.6094   13.4294 O.2     1  UNL1       -0.1689
     26 C          62.6810   78.5562   10.0295 C.3     1  UNL1        0.0276
     27 C          62.5061   78.7634   11.5047 C.3     1  UNL1        0.1556
@<TRIPOS>BOND
     1    26    27    1
     2    27    23    1
     3    23    24    2
     4    23    25    2
     5    23     1    1
     6     1     2    2
     7     2     3    1
     8     3     4    2
     9     4     5    1
    10     5     6    2
    11     6    10    1
    12    10    11   ar
    13    11    12   ar
    14    12    13   ar
    15    13    14    1
    16    13    15   ar
    17    15    17    1
    18    17    18   ar
    19    18    19   ar
    20    19    20   ar
    21    20    21   ar
    22    21    22   ar
    23    15    16   ar
    24     6     7    1
    25     7     8    2
    26     8     9    1
    27     9     1    1
    28     8     4    1
    29    16    10   ar
    30    22    17   ar
@<TRIPOS>MOLECULE
*****
 27 30 0 0 0
SMALL
GASTEIGER

@<TRIPOS>ATOM
      1 C          62.8865   84.0666   14.3805 C.2     1  UNL1        0.0919
      2 C          62.4941   84.3405   15.8021 C.2     1  UNL1        0.0183
      3 C          62.7546   85.6888   16.4056 C.2     1  UNL1        0.0511
      4 C          63.4074   86.7632   15.5874 C.2     1  UNL1        0.2322
      5 N          63.7877   88.1782   15.9088 N.2     1  UNL1       -0.0308
      6 C          64.4151   88.7788   14.6858 C.2     1  UNL1        0.3752
      7 N          64.4226   87.7350   13.6086 N.2     1  UNL1       -0.0347
      8 C          63.7998   86.4893   14.1659 C.2     1  UNL1        0.2191
      9 C          63.5393   85.1410   13.5624 C.3     1  UNL1        0.1226
     10 C          64.9425   90.1776   14.5619 C.ar    1  UNL1        0.0885
     11 C          64.9410   91.0880   15.7540 C.ar    1  UNL1        0.0086
     12 C          65.4683   92.4868   15.6301 C.ar    1  UNL1        0.0116
     13 C          65.9970   92.9751   14.3142 C.ar    1  UNL1        0.0577
     14 CL         66.5244   94.3739   14.1902 Cl      1  UNL1       -0.0822
     15 C          65.9985   92.0647   13.1221 C.ar    1  UNL1        0.0108
     16 C          65.4713   90.6659   13.2459 C.ar    1  UNL1        0.0085
     17 C          66.5274   92.5531   11.8060 C.ar    1  UNL1        0.0008
     18 C          65.8070   93.6403   11.0651 C.ar    1  UNL1        0.0000
     19 C          66.3358   94.1286    9.7492 C.ar    1  UNL1        0.0000
     20 C          67.5851   93.5298    9.1741 C.ar    1  UNL1        0.0000
     21 C          68.3055   92.4426    9.9150 C.ar    1  UNL1        0.0000
     22 C          67.7766   91.9542   11.2309 C.ar    1  UNL1        0.0000
     23 S          62.6260   82.7183   13.7771 S.O2    1  UNL1        0.0054
     24 O          61.6517   82.4145   14.8764 O.2     1  UNL1       -0.1689
     25 O          63.6003   83.0220   12.6778 O.2     1  UNL1       -0.1689
     26 C          61.3378   80.4620   13.7814 C.3     1  UNL1        0.0276
     27 C          62.3655   81.3699   13.1736 C.3     1  UNL1        0.1556
@<TRIPOS>BOND
     1    26    27    1
     2    27    23    1
     3    23    24    2
     4    23    25    2
     5    23     1    1
     6     1     2    2
     7     2     3    1
     8     3     4    2
     9     4     5    1
    10     5     6    2
    11     6    10    1
    12    10    11   ar
    13    11    12   ar
    14    12    13   ar
    15    13    14    1
    16    13    15   ar
    17    15    17    1
    18    17    18   ar
    19    18    19   ar
    20    19    20   ar
    21    20    21   ar
    22    21    22   ar
    23    15    16   ar
    24     6     7    1
    25     7     8    2
    26     8     9    1
    27     9     1    1
    28     8     4    1
    29    16    10   ar
    30    22    17   ar
@<TRIPOS>MOLECULE
*****
 27 30 0 0 0
SMALL
GASTEIGER

@<TRIPOS>ATOM
      1 C          59.3085   89.7781    6.5613 C.2     1  UNL1        0.0919
      2 C          58.6122   88.4540    6.4517 C.2     1  UNL1        0.0183
      3 C          58.9429   87.3509    7.4127 C.2     1  UNL1        0.0511
      4 C          59.9699   87.5717    8.4834 C.2     1  UNL1        0.2322
      5 N          60.5003   86.6781    9.5651 N.2     1  UNL1       -0.0308
      6 C          61.5244   87.4499   10.3434 C.2     1  UNL1        0.3752
      7 N          61.6270   88.8205    9.7426 N.2     1  UNL1       -0.0347
      8 C          60.6662   88.8957    8.5931 C.2     1  UNL1        0.2191
      9 C          60.3355   89.9989    7.6320 C.3     1  UNL1        0.1226
     10 C          62.3083   86.9404   11.5164 C.ar    1  UNL1        0.0885
     11 C          63.0832   87.8973   12.3732 C.ar    1  UNL1        0.0086
     12 C          63.8671   87.3879   13.5462 C.ar    1  UNL1        0.0116
     13 C          63.8761   85.9217   13.8625 C.ar    1  UNL1        0.0577
     14 CL         64.6600   85.4122   15.0355 Cl      1  UNL1       -0.0822
     15 C          63.1013   84.9648   13.0057 C.ar    1  UNL1        0.0108
     16 C          62.3174   85.4742   11.8327 C.ar    1  UNL1        0.0085
     17 C          63.1104   83.4985   13.3220 C.ar    1  UNL1        0.0008
     18 C          62.0299   82.9096   14.1796 C.ar    1  UNL1        0.0000
     19 C          62.0390   81.4434   14.4959 C.ar    1  UNL1        0.0000
     20 C          63.1286   80.5661   13.9545 C.ar    1  UNL1        0.0000
     21 C          64.2091   81.1550   13.0968 C.ar    1  UNL1        0.0000
     22 C          64.2000   82.6213   12.7806 C.ar    1  UNL1        0.0000
     23 S          58.9777   90.8813    5.6003 S.O2    1  UNL1        0.0054
     24 O          57.5228   90.7367    5.9351 O.2     1  UNL1       -0.1689
     25 O          60.4327   91.0258    5.2655 O.2     1  UNL1       -0.1689
     26 C          59.7210   92.5699    3.7711 C.3     1  UNL1        0.0276
     27 C          58.6470   91.9845    4.6392 C.3     1  UNL1        0.1556
@<TRIPOS>BOND
     1    26    27    1
     2    27    23    1
     3    23    24    2
     4    23    25    2
     5    23     1    1
     6     1     2    2
     7     2     3    1
     8     3     4    2
     9     4     5    1
    10     5     6    2
    11     6    10    1
    12    10    11   ar
    13    11    12   ar
    14    12    13   ar
    15    13    14    1
    16    13    15   ar
    17    15    17    1
    18    17    18   ar
    19    18    19   ar
    20    19    20   ar
    21    20    21   ar
    22    21    22   ar
    23    15    16   ar
    24     6     7    1
    25     7     8    2
    26     8     9    1
    27     9     1    1
    28     8     4    1
    29    16    10   ar
    30    22    17   ar
@<TRIPOS>MOLECULE
*****
 27 30 0 0 0
SMALL
GASTEIGER

@<TRIPOS>ATOM
      1 C          71.1037   73.2544   15.5902 C.2     1  UNL1        0.0919
      2 C          71.1632   72.5209   14.2832 C.2     1  UNL1        0.0183
      3 C          71.4602   73.2679   13.0168 C.2     1  UNL1        0.0511
      4 C          71.6979   74.7483   13.0575 C.2     1  UNL1        0.2322
      5 N          72.0098   75.7448   11.9805 N.2     1  UNL1       -0.0308
      6 C          72.1432   77.0941   12.6220 C.2     1  UNL1        0.3752
      7 N          71.9136   76.9317   14.0954 N.2     1  UNL1       -0.0347
      8 C          71.6384   75.4818   14.3645 C.2     1  UNL1        0.2191
      9 C          71.3413   74.7348   15.6309 C.3     1  UNL1        0.1226
     10 C          72.4519   78.3802   11.9143 C.ar    1  UNL1        0.0885
     11 C          72.9406   79.5659   12.6924 C.ar    1  UNL1        0.0086
     12 C          73.2493   80.8519   11.9848 C.ar    1  UNL1        0.0116
     13 C          73.0693   80.9523   10.4990 C.ar    1  UNL1        0.0577
     14 CL         73.3780   82.2383    9.7913 Cl      1  UNL1       -0.0822
     15 C          72.5807   79.7666    9.7209 C.ar    1  UNL1        0.0108
     16 C          72.2720   78.4806   10.4286 C.ar    1  UNL1        0.0085
     17 C          72.4007   79.8670    8.2351 C.ar    1  UNL1        0.0008
     18 C          71.3585   80.7834    7.6661 C.ar    1  UNL1        0.0000
     19 C          71.1786   80.8838    6.1803 C.ar    1  UNL1        0.0000
     20 C          72.0410   80.0678    5.2636 C.ar    1  UNL1        0.0000
     21 C          73.0833   79.1514    5.8326 C.ar    1  UNL1        0.0000
     22 C          73.2631   79.0510    7.3184 C.ar    1  UNL1        0.0000
     23 S          70.8067   72.5074   16.8566 S.O2    1  UNL1        0.0054
     24 O          70.3032   73.7729   17.4850 O.2     1  UNL1       -0.1689
     25 O          71.3102   71.2418   16.2283 O.2     1  UNL1       -0.1689
     26 C          70.9610   72.3121   19.4427 C.3     1  UNL1        0.0276
     27 C          70.5096   71.7604   18.1230 C.3     1  UNL1        0.1556
@<TRIPOS>BOND
     1    26    27    1
     2    27    23    1
     3    23    24    2
     4    23    25    2
     5    23     1    1
     6     1     2    2
     7     2     3    1
     8     3     4    2
     9     4     5    1
    10     5     6    2
    11     6    10    1
    12    10    11   ar
    13    11    12   ar
    14    12    13   ar
    15    13    14    1
    16    13    15   ar
    17    15    17    1
    18    17    18   ar
    19    18    19   ar
    20    19    20   ar
    21    20    21   ar
    22    21    22   ar
    23    15    16   ar
    24     6     7    1
    25     7     8    2
    26     8     9    1
    27     9     1    1
    28     8     4    1
    29    16    10   ar
    30    22    17   ar
@<TRIPOS>MOLECULE
*****
 27 30 0 0 0
SMALL
GASTEIGER

@<TRIPOS>ATOM
      1 C          62.5892   83.0408   14.1963 C.2     1  UNL1        0.0919
      2 C          62.8123   83.3617   15.6444 C.2     1  UNL1        0.0183
      3 C          63.2365   84.7421   16.0500 C.2     1  UNL1        0.0511
      4 C          63.4376   85.8016   15.0074 C.2     1  UNL1        0.2322
      5 N          63.8498   87.2406   15.1052 N.2     1  UNL1       -0.0308
      6 C          63.8815   87.8090   13.7174 C.2     1  UNL1        0.3752
      7 N          63.4888   86.7214   12.7619 N.2     1  UNL1       -0.0347
      8 C          63.2144   85.4807   13.5593 C.2     1  UNL1        0.2191
      9 C          62.7902   84.1003   13.1537 C.3     1  UNL1        0.1226
     10 C          64.2425   89.2177   13.3496 C.ar    1  UNL1        0.0885
     11 C          63.4814   89.9297   12.2708 C.ar    1  UNL1        0.0086
     12 C          63.8423   91.3384   11.9030 C.ar    1  UNL1        0.0116
     13 C          64.9643   92.0351   12.6141 C.ar    1  UNL1        0.0577
     14 CL         65.3253   93.4439   12.2464 Cl      1  UNL1       -0.0822
     15 C          65.7254   91.3231   13.6929 C.ar    1  UNL1        0.0108
     16 C          65.3644   89.9144   14.0607 C.ar    1  UNL1        0.0085
     17 C          66.8474   92.0199   14.4040 C.ar    1  UNL1        0.0008
     18 C          68.2430   91.9429   13.8596 C.ar    1  UNL1        0.0000
     19 C          69.3649   92.6396   14.5707 C.ar    1  UNL1        0.0000
     20 C          69.0913   93.4135   15.8262 C.ar    1  UNL1        0.0000
     21 C          67.6958   93.4905   16.3706 C.ar    1  UNL1        0.0000
     22 C          66.5738   92.7937   15.6596 C.ar    1  UNL1        0.0000
     23 S          62.1650   81.6604   13.7907 S.O2    1  UNL1        0.0054
     24 O          61.2086   81.6150   14.9453 O.2     1  UNL1       -0.1689
     25 O          63.1215   81.7057   12.6360 O.2     1  UNL1       -0.1689
     26 C          60.4479   79.7133   13.8922 C.3     1  UNL1        0.0276
     27 C          61.7408   80.2800   13.3851 C.3     1  UNL1        0.1556
@<TRIPOS>BOND
     1    26    27    1
     2    27    23    1
     3    23    24    2
     4    23    25    2
     5    23     1    1
     6     1     2    2
     7     2     3    1
     8     3     4    2
     9     4     5    1
    10     5     6    2
    11     6    10    1
    12    10    11   ar
    13    11    12   ar
    14    12    13   ar
    15    13    14    1
    16    13    15   ar
    17    15    17    1
    18    17    18   ar
    19    18    19   ar
    20    19    20   ar
    21    20    21   ar
    22    21    22   ar
    23    15    16   ar
    24     6     7    1
    25     7     8    2
    26     8     9    1
    27     9     1    1
    28     8     4    1
    29    16    10   ar
    30    22    17   ar
@<TRIPOS>MOLECULE
*****
 27 30 0 0 0
SMALL
GASTEIGER

@<TRIPOS>ATOM
      1 C          62.8971   82.4631   12.8147 C.2     1  UNL1        0.0919
      2 C          62.7305   83.1106   11.4720 C.2     1  UNL1        0.0183
      3 C          62.8419   84.6005   11.3388 C.2     1  UNL1        0.0511
      4 C          63.1198   85.4430   12.5483 C.2     1  UNL1        0.2322
      5 N          63.2821   86.9237   12.7244 N.2     1  UNL1       -0.0308
      6 C          63.5489   87.1914   14.1760 C.2     1  UNL1        0.3752
      7 N          63.5516   85.8761   14.8971 N.2     1  UNL1       -0.0347
      8 C          63.2863   84.7955   13.8910 C.2     1  UNL1        0.2191
      9 C          63.1750   83.3056   14.0242 C.3     1  UNL1        0.1226
     10 C          63.7736   88.5381   14.7975 C.ar    1  UNL1        0.0885
     11 C          63.3669   88.7849   16.2200 C.ar    1  UNL1        0.0086
     12 C          63.5916   90.1314   16.8415 C.ar    1  UNL1        0.0116
     13 C          64.2231   91.2312   16.0404 C.ar    1  UNL1        0.0577
     14 CL         64.4478   92.5778   16.6618 Cl      1  UNL1       -0.0822
     15 C          64.6298   90.9844   14.6178 C.ar    1  UNL1        0.0108
     16 C          64.4051   89.6378   13.9964 C.ar    1  UNL1        0.0085
     17 C          65.2612   92.0842   13.8167 C.ar    1  UNL1        0.0008
     18 C          66.1887   93.0583   14.4807 C.ar    1  UNL1        0.0000
     19 C          66.8201   94.1580   13.6796 C.ar    1  UNL1        0.0000
     20 C          66.5240   94.2837   12.2145 C.ar    1  UNL1        0.0000
     21 C          65.5965   93.3096   11.5505 C.ar    1  UNL1        0.0000
     22 C          64.9651   92.2099   12.3516 C.ar    1  UNL1        0.0000
     23 S          62.7857   80.9732   12.9479 S.O2    1  UNL1        0.0054
     24 O          62.8918   80.8321   11.4583 O.2     1  UNL1       -0.1689
     25 O          62.6797   81.1143   14.4375 O.2     1  UNL1       -0.1689
     26 C          61.5687   78.8839   13.8984 C.3     1  UNL1        0.0276
     27 C          62.6744   79.4833   13.0811 C.3     1  UNL1        0.1556
@<TRIPOS>BOND
     1    26    27    1
     2    27    23    1
     3    23    24    2
     4    23    25    2
     5    23     1    1
     6     1     2    2
     7     2     3    1
     8     3     4    2
     9     4     5    1
    10     5     6    2
    11     6    10    1
    12    10    11   ar
    13    11    12   ar
    14    12    13   ar
    15    13    14    1
    16    13    15   ar
    17    15    17    1
    18    17    18   ar
    19    18    19   ar
    20    19    20   ar
    21    20    21   ar
    22    21    22   ar
    23    15    16   ar
    24     6     7    1
    25     7     8    2
    26     8     9    1
    27     9     1    1
    28     8     4    1
    29    16    10   ar
    30    22    17   ar
@<TRIPOS>MOLECULE
*****
 27 30 0 0 0
SMALL
GASTEIGER

@<TRIPOS>ATOM
      1 C          60.8351   86.7179    8.7732 C.2     1  UNL1        0.0919
      2 C          59.7864   86.9435    9.8217 C.2     1  UNL1        0.0183
      3 C          60.0337   87.9217   10.9316 C.2     1  UNL1        0.0511
      4 C          61.3296   88.6745   10.9930 C.2     1  UNL1        0.2322
      5 N          61.8530   89.6946   11.9601 N.2     1  UNL1       -0.0308
      6 C          63.2252   90.0996   11.5094 C.2     1  UNL1        0.3752
      7 N          63.5499   89.3297   10.2637 N.2     1  UNL1       -0.0347
      8 C          62.3784   88.4489    9.9446 C.2     1  UNL1        0.2191
      9 C          62.1311   87.4707    8.8347 C.3     1  UNL1        0.1226
     10 C          64.1162   91.0990   12.1858 C.ar    1  UNL1        0.0885
     11 C          64.3871   90.9876   13.6569 C.ar    1  UNL1        0.0086
     12 C          65.2781   91.9869   14.3332 C.ar    1  UNL1        0.0116
     13 C          65.8981   93.0977   13.5384 C.ar    1  UNL1        0.0577
     14 CL         66.7891   94.0971   14.2147 Cl      1  UNL1       -0.0822
     15 C          65.6272   93.2091   12.0673 C.ar    1  UNL1        0.0108
     16 C          64.7362   92.2098   11.3910 C.ar    1  UNL1        0.0085
     17 C          66.2473   94.3199   11.2725 C.ar    1  UNL1        0.0008
     18 C          67.0371   94.0073   10.0362 C.ar    1  UNL1        0.0000
     19 C          67.6571   95.1181    9.2415 C.ar    1  UNL1        0.0000
     20 C          67.4873   96.5415    9.6830 C.ar    1  UNL1        0.0000
     21 C          66.6975   96.8542   10.9193 C.ar    1  UNL1        0.0000
     22 C          66.0775   95.7434   11.7140 C.ar    1  UNL1        0.0000
     23 S          60.5879   85.7397    7.6633 S.O2    1  UNL1        0.0054
     24 O          59.1776   86.2357    7.5403 O.2     1  UNL1       -0.1689
     25 O          61.9981   85.2437    7.7863 O.2     1  UNL1       -0.1689
     26 C          61.4975   84.0979    5.8669 C.3     1  UNL1        0.0276
     27 C          60.3406   84.7614    6.5534 C.3     1  UNL1        0.1556
@<TRIPOS>BOND
     1    26    27    1
     2    27    23    1
     3    23    24    2
     4    23    25    2
     5    23     1    1
     6     1     2    2
     7     2     3    1
     8     3     4    2
     9     4     5    1
    10     5     6    2
    11     6    10    1
    12    10    11   ar
    13    11    12   ar
    14    12    13   ar
    15    13    14    1
    16    13    15   ar
    17    15    17    1
    18    17    18   ar
    19    18    19   ar
    20    19    20   ar
    21    20    21   ar
    22    21    22   ar
    23    15    16   ar
    24     6     7    1
    25     7     8    2
    26     8     9    1
    27     9     1    1
    28     8     4    1
    29    16    10   ar
    30    22    17   ar
