@<TRIPOS>MOLECULE
*****
 22 24 0 0 0
SMALL
GASTEIGER

@<TRIPOS>ATOM
      1 N          61.8745   87.3226   10.8516 N.3     1  UNL1       -0.2647
      2 C          60.4354   87.7368   10.7644 C.3     1  UNL1        0.1049
      3 C          59.9632   88.9641   11.4860 C.3     1  UNL1        0.1594
      4 O          60.9300   89.7772   12.2948 O.3     1  UNL1       -0.3533
      5 C          62.3690   89.3630   12.3821 C.3     1  UNL1        0.1315
      6 C          62.8413   88.1357   11.6604 C.3     1  UNL1        0.1023
      7 C          62.3468   86.0953   10.1300 C.3     1  UNL1        0.0993
      8 CL         63.9926   81.2343   13.2384 Cl      1  UNL1       -0.0822
      9 C          63.5812   82.4496   12.4613 C.ar    1  UNL1        0.0577
     10 C          62.8493   83.5655   13.1462 C.ar    1  UNL1        0.0111
     11 C          62.4379   84.7807   12.3691 C.ar    1  UNL1       -0.0021
     12 C          62.7582   84.8801   10.9071 C.ar    1  UNL1       -0.0061
     13 C          63.4901   83.7641   10.2223 C.ar    1  UNL1       -0.0021
     14 C          63.9015   82.5489   10.9994 C.ar    1  UNL1        0.0111
     15 C          63.3358   90.1762   13.1909 C.3     1  UNL1        0.0357
     16 C          64.3976   89.4923   14.0000 C.3     1  UNL1        0.0289
     17 C          64.0167   88.4505   15.0097 C.ar    1  UNL1       -0.0221
     18 C          64.3679   87.0117   14.7718 C.ar    1  UNL1       -0.0043
     19 C          63.9870   85.9698   15.7815 C.ar    1  UNL1       -0.0003
     20 C          63.2549   86.3668   17.0291 C.ar    1  UNL1       -0.0000
     21 C          62.9038   87.8056   17.2670 C.ar    1  UNL1       -0.0003
     22 C          63.2847   88.8474   16.2573 C.ar    1  UNL1       -0.0043
@<TRIPOS>BOND
     1     8     9    1
     2     9    10   ar
     3    10    11   ar
     4    11    12   ar
     5    12     7    1
     6     7     1    1
     7     1     2    1
     8     2     3    1
     9     3     4    1
    10     4     5    1
    11     5    15    1
    12    15    16    1
    13    16    17    1
    14    17    18   ar
    15    18    19   ar
    16    19    20   ar
    17    20    21   ar
    18    21    22   ar
    19     5     6    1
    20    12    13   ar
    21    13    14   ar
    22    14     9   ar
    23     6     1    1
    24    22    17   ar
@<TRIPOS>MOLECULE
*****
 22 24 0 0 0
SMALL
GASTEIGER

@<TRIPOS>ATOM
      1 N          61.8339   86.4729    8.8820 N.3     1  UNL1       -0.2647
      2 C          60.5173   86.2738    8.1912 C.3     1  UNL1        0.1049
      3 C          59.4757   87.3522    8.2368 C.3     1  UNL1        0.1594
      4 O          59.7507   88.6298    8.9731 O.3     1  UNL1       -0.3533
      5 C          61.0671   88.8290    9.6639 C.3     1  UNL1        0.1315
      6 C          62.1088   87.7505    9.6183 C.3     1  UNL1        0.1023
      7 C          62.8754   85.3945    8.8364 C.3     1  UNL1        0.0993
      8 CL         63.8300   81.9403   13.6485 Cl      1  UNL1       -0.0822
      9 C          63.5914   82.8038   12.4455 C.ar    1  UNL1        0.0577
     10 C          62.6860   83.9955   12.5454 C.ar    1  UNL1        0.0111
     11 C          62.4473   84.8591   11.3424 C.ar    1  UNL1       -0.0021
     12 C          63.1141   84.5309   10.0394 C.ar    1  UNL1       -0.0061
     13 C          64.0195   83.3392    9.9395 C.ar    1  UNL1       -0.0021
     14 C          64.2581   82.4757   11.1426 C.ar    1  UNL1        0.0111
     15 C          61.3421   90.1066   10.4002 C.3     1  UNL1        0.0357
     16 C          62.7397   90.6466   10.4692 C.3     1  UNL1        0.0289
     17 C          63.5037   90.5878   11.7587 C.ar    1  UNL1       -0.0221
     18 C          64.4300   91.7066   12.1333 C.ar    1  UNL1       -0.0043
     19 C          65.1940   91.6479   13.4229 C.ar    1  UNL1       -0.0003
     20 C          65.0316   90.4703   14.3378 C.ar    1  UNL1       -0.0000
     21 C          64.1054   89.3515   13.9631 C.ar    1  UNL1       -0.0003
     22 C          63.3414   89.4103   12.6736 C.ar    1  UNL1       -0.0043
@<TRIPOS>BOND
     1     8     9    1
     2     9    10   ar
     3    10    11   ar
     4    11    12   ar
     5    12     7    1
     6     7     1    1
     7     1     2    1
     8     2     3    1
     9     3     4    1
    10     4     5    1
    11     5    15    1
    12    15    16    1
    13    16    17    1
    14    17    18   ar
    15    18    19   ar
    16    19    20   ar
    17    20    21   ar
    18    21    22   ar
    19     5     6    1
    20    12    13   ar
    21    13    14   ar
    22    14     9   ar
    23     6     1    1
    24    22    17   ar
@<TRIPOS>MOLECULE
*****
 22 24 0 0 0
SMALL
GASTEIGER

@<TRIPOS>ATOM
      1 N          63.7336   90.0253   12.3720 N.3     1  UNL1       -0.2647
      2 C          63.8283   91.2419   11.4996 C.3     1  UNL1        0.1049
      3 C          63.0605   91.3034   10.2125 C.3     1  UNL1        0.1594
      4 O          62.1979   90.1485    9.7978 O.3     1  UNL1       -0.3533
      5 C          62.1031   88.9319   10.6702 C.3     1  UNL1        0.1315
      6 C          62.8710   88.8704   11.9574 C.3     1  UNL1        0.1023
      7 C          64.5014   89.9638   13.6591 C.3     1  UNL1        0.0993
      8 CL         62.7616   86.2216   18.0145 Cl      1  UNL1       -0.0822
      9 C          63.1965   87.1572   16.9256 C.ar    1  UNL1        0.0577
     10 C          62.9028   88.6240   17.0354 C.ar    1  UNL1        0.0111
     11 C          63.3378   89.5595   15.9466 C.ar    1  UNL1       -0.0021
     12 C          64.0664   89.0283   14.7480 C.ar    1  UNL1       -0.0061
     13 C          64.3601   87.5614   14.6382 C.ar    1  UNL1       -0.0021
     14 C          63.9252   86.6259   15.7270 C.ar    1  UNL1        0.0111
     15 C          61.2405   87.7770   10.2555 C.3     1  UNL1        0.0357
     16 C          61.8285   86.6495    9.4598 C.3     1  UNL1        0.0289
     17 C          62.4687   85.4894   10.1628 C.ar    1  UNL1       -0.0221
     18 C          63.3182   84.5220    9.3929 C.ar    1  UNL1       -0.0043
     19 C          63.9584   83.3619   10.0959 C.ar    1  UNL1       -0.0003
     20 C          63.7491   83.1691   11.5687 C.ar    1  UNL1       -0.0000
     21 C          62.8996   84.1364   12.3385 C.ar    1  UNL1       -0.0003
     22 C          62.2594   85.2966   11.6355 C.ar    1  UNL1       -0.0043
@<TRIPOS>BOND
     1     8     9    1
     2     9    10   ar
     3    10    11   ar
     4    11    12   ar
     5    12     7    1
     6     7     1    1
     7     1     2    1
     8     2     3    1
     9     3     4    1
    10     4     5    1
    11     5    15    1
    12    15    16    1
    13    16    17    1
    14    17    18   ar
    15    18    19   ar
    16    19    20   ar
    17    20    21   ar
    18    21    22   ar
    19     5     6    1
    20    12    13   ar
    21    13    14   ar
    22    14     9   ar
    23     6     1    1
    24    22    17   ar
@<TRIPOS>MOLECULE
*****
 22 24 0 0 0
SMALL
GASTEIGER

@<TRIPOS>ATOM
      1 N          63.7720   83.3844   14.3276 N.3     1  UNL1       -0.2647
      2 C          62.5651   82.5914   14.7334 C.3     1  UNL1        0.1049
      3 C          61.8106   81.7968   13.7091 C.3     1  UNL1        0.1594
      4 O          62.2630   81.7951   12.2789 O.3     1  UNL1       -0.3533
      5 C          63.4698   82.5881   11.8731 C.3     1  UNL1        0.1315
      6 C          64.2244   83.3827   12.8974 C.3     1  UNL1        0.1023
      7 C          64.5265   84.1790   15.3519 C.3     1  UNL1        0.0993
      8 CL         63.0654   89.9073   16.3776 Cl      1  UNL1       -0.0822
      9 C          63.4307   88.4752   16.1212 C.ar    1  UNL1        0.0577
     10 C          64.2685   88.1167   14.9298 C.ar    1  UNL1        0.0111
     11 C          64.6337   86.6846   14.6733 C.ar    1  UNL1       -0.0021
     12 C          64.1613   85.6111   15.6083 C.ar    1  UNL1       -0.0061
     13 C          63.3235   85.9696   16.7997 C.ar    1  UNL1       -0.0021
     14 C          62.9582   87.4017   17.0562 C.ar    1  UNL1        0.0111
     15 C          63.9221   82.5864   10.4429 C.3     1  UNL1        0.0357
     16 C          64.1550   83.8845    9.7284 C.3     1  UNL1        0.0289
     17 C          62.9910   84.7517    9.3501 C.ar    1  UNL1       -0.0221
     18 C          62.5799   84.8699    7.9123 C.ar    1  UNL1       -0.0043
     19 C          61.4159   85.7371    7.5340 C.ar    1  UNL1       -0.0003
     20 C          60.6631   86.4861    8.5935 C.ar    1  UNL1       -0.0000
     21 C          61.0743   86.3679   10.0311 C.ar    1  UNL1       -0.0003
     22 C          62.2382   85.5007   10.4094 C.ar    1  UNL1       -0.0043
@<TRIPOS>BOND
     1     8     9    1
     2     9    10   ar
     3    10    11   ar
     4    11    12   ar
     5    12     7    1
     6     7     1    1
     7     1     2    1
     8     2     3    1
     9     3     4    1
    10     4     5    1
    11     5    15    1
    12    15    16    1
    13    16    17    1
    14    17    18   ar
    15    18    19   ar
    16    19    20   ar
    17    20    21   ar
    18    21    22   ar
    19     5     6    1
    20    12    13   ar
    21    13    14   ar
    22    14     9   ar
    23     6     1    1
    24    22    17   ar
@<TRIPOS>MOLECULE
*****
 22 24 0 0 0
SMALL
GASTEIGER

@<TRIPOS>ATOM
      1 N          64.2611   91.2651   13.7363 N.3     1  UNL1       -0.2647
      2 C          65.5014   92.0679   13.4765 C.3     1  UNL1        0.1049
      3 C          65.8433   92.4883   12.0779 C.3     1  UNL1        0.1594
      4 O          64.9451   92.1061   10.9390 O.3     1  UNL1       -0.3533
      5 C          63.7048   91.3034   11.1988 C.3     1  UNL1        0.1315
      6 C          63.3628   90.8829   12.5975 C.3     1  UNL1        0.1023
      7 C          63.9192   90.8447   15.1350 C.3     1  UNL1        0.0993
      8 CL         63.4871   85.0168   16.4947 Cl      1  UNL1       -0.0822
      9 C          63.5951   86.4738   16.1548 C.ar    1  UNL1        0.0577
     10 C          62.9708   87.5014   17.0515 C.ar    1  UNL1        0.0111
     11 C          63.0788   88.9584   16.7116 C.ar    1  UNL1       -0.0021
     12 C          63.8111   89.3877   15.4749 C.ar    1  UNL1       -0.0061
     13 C          64.4354   88.3600   14.5782 C.ar    1  UNL1       -0.0021
     14 C          64.3274   86.9031   14.9182 C.ar    1  UNL1        0.0111
     15 C          62.8066   90.9212   10.0599 C.3     1  UNL1        0.0357
     16 C          61.5128   90.2121   10.3305 C.3     1  UNL1        0.0289
     17 C          61.1888   88.9399    9.6049 C.ar    1  UNL1       -0.0221
     18 C          60.0327   88.8947    8.6501 C.ar    1  UNL1       -0.0043
     19 C          59.7087   87.6225    7.9244 C.ar    1  UNL1       -0.0003
     20 C          60.5407   86.3956    8.1536 C.ar    1  UNL1       -0.0000
     21 C          61.6967   86.4408    9.1083 C.ar    1  UNL1       -0.0003
     22 C          62.0207   87.7130    9.8340 C.ar    1  UNL1       -0.0043
@<TRIPOS>BOND
     1     8     9    1
     2     9    10   ar
     3    10    11   ar
     4    11    12   ar
     5    12     7    1
     6     7     1    1
     7     1     2    1
     8     2     3    1
     9     3     4    1
    10     4     5    1
    11     5    15    1
    12    15    16    1
    13    16    17    1
    14    17    18   ar
    15    18    19   ar
    16    19    20   ar
    17    20    21   ar
    18    21    22   ar
    19     5     6    1
    20    12    13   ar
    21    13    14   ar
    22    14     9   ar
    23     6     1    1
    24    22    17   ar
@<TRIPOS>MOLECULE
*****
 22 24 0 0 0
SMALL
GASTEIGER

@<TRIPOS>ATOM
      1 N          62.0134   88.8773   10.6952 N.3     1  UNL1       -0.2647
      2 C          62.2330   89.9640    9.6847 C.3     1  UNL1        0.1049
      3 C          62.9355   91.2279   10.0833 C.3     1  UNL1        0.1594
      4 O          63.4185   91.4052   11.4923 O.3     1  UNL1       -0.3533
      5 C          63.1989   90.3186   12.5028 C.3     1  UNL1        0.1315
      6 C          62.4963   89.0546   12.1042 C.3     1  UNL1        0.1023
      7 C          61.3109   87.6134   10.2966 C.3     1  UNL1        0.0993
      8 CL         64.2697   82.3939   10.3426 Cl      1  UNL1       -0.0822
      9 C          63.5300   83.6987   10.3311 C.ar    1  UNL1        0.0577
     10 C          62.9211   84.2269   11.5961 C.ar    1  UNL1        0.0111
     11 C          62.1814   85.5318   11.5846 C.ar    1  UNL1       -0.0021
     12 C          62.0506   86.3085   10.3081 C.ar    1  UNL1       -0.0061
     13 C          62.6594   85.7803    9.0431 C.ar    1  UNL1       -0.0021
     14 C          63.3991   84.4754    9.0546 C.ar    1  UNL1        0.0111
     15 C          63.6818   90.4959   13.9118 C.3     1  UNL1        0.0357
     16 C          64.6428   89.5087   14.5050 C.3     1  UNL1        0.0289
     17 C          64.1287   88.3540   15.3127 C.ar    1  UNL1       -0.0221
     18 C          64.4310   86.9476   14.8873 C.ar    1  UNL1       -0.0043
     19 C          63.9170   85.7929   15.6949 C.ar    1  UNL1       -0.0003
     20 C          63.1005   86.0445   16.9279 C.ar    1  UNL1       -0.0000
     21 C          62.7982   87.4508   17.3532 C.ar    1  UNL1       -0.0003
     22 C          63.3123   88.6055   16.5456 C.ar    1  UNL1       -0.0043
@<TRIPOS>BOND
     1     8     9    1
     2     9    10   ar
     3    10    11   ar
     4    11    12   ar
     5    12     7    1
     6     7     1    1
     7     1     2    1
     8     2     3    1
     9     3     4    1
    10     4     5    1
    11     5    15    1
    12    15    16    1
    13    16    17    1
    14    17    18   ar
    15    18    19   ar
    16    19    20   ar
    17    20    21   ar
    18    21    22   ar
    19     5     6    1
    20    12    13   ar
    21    13    14   ar
    22    14     9   ar
    23     6     1    1
    24    22    17   ar
@<TRIPOS>MOLECULE
*****
 22 24 0 0 0
SMALL
GASTEIGER

@<TRIPOS>ATOM
      1 N          63.8032   89.1909   15.2274 N.3     1  UNL1       -0.2647
      2 C          63.0678   89.1066   16.5321 C.3     1  UNL1        0.1049
      3 C          62.8580   87.7751   17.1901 C.3     1  UNL1        0.1594
      4 O          63.3837   86.5278   16.5436 O.3     1  UNL1       -0.3533
      5 C          64.1191   86.6121   15.2390 C.3     1  UNL1        0.1315
      6 C          64.3289   87.9437   14.5809 C.3     1  UNL1        0.1023
      7 C          64.0129   90.5224   14.5694 C.3     1  UNL1        0.0993
      8 CL         69.0814   93.5833   15.5399 Cl      1  UNL1       -0.0822
      9 C          67.8143   92.8181   15.2973 C.ar    1  UNL1        0.0577
     10 C          67.6551   92.0087   14.0445 C.ar    1  UNL1        0.0111
     11 C          66.3880   91.2434   13.8019 C.ar    1  UNL1       -0.0021
     12 C          65.2800   91.2876   14.8120 C.ar    1  UNL1       -0.0061
     13 C          65.4392   92.0971   16.0648 C.ar    1  UNL1       -0.0021
     14 C          66.7063   92.8623   16.3074 C.ar    1  UNL1        0.0111
     15 C          64.6448   85.3649   14.5924 C.3     1  UNL1        0.0357
     16 C          63.6950   84.3861   13.9682 C.3     1  UNL1        0.0289
     17 C          63.5712   84.3089   12.4753 C.ar    1  UNL1       -0.0221
     18 C          62.6855   85.2747   11.7452 C.ar    1  UNL1       -0.0043
     19 C          62.5618   85.1975   10.2523 C.ar    1  UNL1       -0.0003
     20 C          63.3237   84.1546    9.4895 C.ar    1  UNL1       -0.0000
     21 C          64.2093   83.1889   10.2196 C.ar    1  UNL1       -0.0003
     22 C          64.3330   83.2660   11.7125 C.ar    1  UNL1       -0.0043
@<TRIPOS>BOND
     1     8     9    1
     2     9    10   ar
     3    10    11   ar
     4    11    12   ar
     5    12     7    1
     6     7     1    1
     7     1     2    1
     8     2     3    1
     9     3     4    1
    10     4     5    1
    11     5    15    1
    12    15    16    1
    13    16    17    1
    14    17    18   ar
    15    18    19   ar
    16    19    20   ar
    17    20    21   ar
    18    21    22   ar
    19     5     6    1
    20    12    13   ar
    21    13    14   ar
    22    14     9   ar
    23     6     1    1
    24    22    17   ar
@<TRIPOS>MOLECULE
*****
 22 24 0 0 0
SMALL
GASTEIGER

@<TRIPOS>ATOM
      1 N          63.8032   89.2038   15.2025 N.3     1  UNL1       -0.2647
      2 C          63.1145   89.1450   16.5338 C.3     1  UNL1        0.1049
      3 C          62.8948   87.8226   17.2068 C.3     1  UNL1        0.1594
      4 O          63.3639   86.5590   16.5487 O.3     1  UNL1       -0.3533
      5 C          64.0526   86.6177   15.2175 C.3     1  UNL1        0.1315
      6 C          64.2723   87.9401   14.5443 C.3     1  UNL1        0.1023
      7 C          64.0229   90.5261   14.5294 C.3     1  UNL1        0.0993
      8 CL         69.0535   93.6249   15.5736 Cl      1  UNL1       -0.0822
      9 C          67.7959   92.8502   15.3125 C.ar    1  UNL1        0.0577
     10 C          67.6431   92.0758   14.0371 C.ar    1  UNL1        0.0111
     11 C          66.3854   91.3011   13.7760 C.ar    1  UNL1       -0.0021
     12 C          65.2806   91.3008   14.7905 C.ar    1  UNL1       -0.0061
     13 C          65.4333   92.0752   16.0660 C.ar    1  UNL1       -0.0021
     14 C          66.6910   92.8499   16.3270 C.ar    1  UNL1        0.0111
     15 C          64.5217   85.3540   14.5593 C.3     1  UNL1        0.0357
     16 C          63.8349   84.8523   13.3238 C.3     1  UNL1        0.0289
     17 C          63.2679   83.4639   13.2923 C.ar    1  UNL1       -0.0221
     18 C          63.5597   82.5609   12.1306 C.ar    1  UNL1       -0.0043
     19 C          62.9928   81.1725   12.0990 C.ar    1  UNL1       -0.0003
     20 C          62.1340   80.6872   13.2292 C.ar    1  UNL1       -0.0000
     21 C          61.8423   81.5903   14.3907 C.ar    1  UNL1       -0.0003
     22 C          62.4092   82.9786   14.4223 C.ar    1  UNL1       -0.0043
@<TRIPOS>BOND
     1     8     9    1
     2     9    10   ar
     3    10    11   ar
     4    11    12   ar
     5    12     7    1
     6     7     1    1
     7     1     2    1
     8     2     3    1
     9     3     4    1
    10     4     5    1
    11     5    15    1
    12    15    16    1
    13    16    17    1
    14    17    18   ar
    15    18    19   ar
    16    19    20   ar
    17    20    21   ar
    18    21    22   ar
    19     5     6    1
    20    12    13   ar
    21    13    14   ar
    22    14     9   ar
    23     6     1    1
    24    22    17   ar
@<TRIPOS>MOLECULE
*****
 22 24 0 0 0
SMALL
GASTEIGER

@<TRIPOS>ATOM
      1 N          63.5979   83.7571   14.0801 N.3     1  UNL1       -0.2647
      2 C          63.2483   82.2989   14.0395 C.3     1  UNL1        0.1049
      3 C          62.6724   81.7003   12.7905 C.3     1  UNL1        0.1594
      4 O          62.4461   82.5598   11.5822 O.3     1  UNL1       -0.3533
      5 C          62.7958   84.0178   11.6228 C.3     1  UNL1        0.1315
      6 C          63.3717   84.6165   12.8718 C.3     1  UNL1        0.1023
      7 C          64.1738   84.3557   15.3291 C.3     1  UNL1        0.0993
      8 CL         63.1885   90.1323   16.6177 Cl      1  UNL1       -0.0822
      9 C          63.4348   88.6882   16.2955 C.ar    1  UNL1        0.0577
     10 C          64.2029   88.3153   15.0623 C.ar    1  UNL1        0.0111
     11 C          64.4493   86.8711   14.7402 C.ar    1  UNL1       -0.0021
     12 C          63.9275   85.7999   15.6512 C.ar    1  UNL1       -0.0061
     13 C          63.1594   86.1728   16.8845 C.ar    1  UNL1       -0.0021
     14 C          62.9131   87.6169   17.2066 C.ar    1  UNL1        0.0111
     15 C          62.5695   84.8773   10.4144 C.3     1  UNL1        0.0357
     16 C          62.2275   86.3284   10.5795 C.3     1  UNL1        0.0289
     17 C          61.2787   86.9888    9.6237 C.ar    1  UNL1       -0.0221
     18 C          60.4802   86.1567    8.6644 C.ar    1  UNL1       -0.0043
     19 C          59.5314   86.8172    7.7085 C.ar    1  UNL1       -0.0003
     20 C          59.3811   88.3097    7.7120 C.ar    1  UNL1       -0.0000
     21 C          60.1795   89.1416    8.6713 C.ar    1  UNL1       -0.0003
     22 C          61.1283   88.4812    9.6271 C.ar    1  UNL1       -0.0043
@<TRIPOS>BOND
     1     8     9    1
     2     9    10   ar
     3    10    11   ar
     4    11    12   ar
     5    12     7    1
     6     7     1    1
     7     1     2    1
     8     2     3    1
     9     3     4    1
    10     4     5    1
    11     5    15    1
    12    15    16    1
    13    16    17    1
    14    17    18   ar
    15    18    19   ar
    16    19    20   ar
    17    20    21   ar
    18    21    22   ar
    19     5     6    1
    20    12    13   ar
    21    13    14   ar
    22    14     9   ar
    23     6     1    1
    24    22    17   ar
