@<TRIPOS>MOLECULE
*****
 45 49 0 0 0
SMALL
GASTEIGER

@<TRIPOS>ATOM
      1 C          60.5230   91.5595    4.4244 C.3     1  UNL1        0.0735
      2 C          59.2076   92.1532    4.0152 C.3     1  UNL1        0.0217
      3 C          59.4153   92.8990    2.7304 C.3     1  UNL1        0.0282
      4 C          60.8589   92.7662    2.3456 C.3     1  UNL1        0.1348
      5 C          61.6386   93.2922    1.1770 C.ar    1  UNL1       -0.0061
      6 C          60.9540   94.1200    0.1301 C.ar    1  UNL1       -0.0032
      7 C          61.7336   94.6460   -1.0384 C.ar    1  UNL1       -0.0015
      8 C          63.1979   94.3441   -1.1600 C.ar    1  UNL1        0.0232
      9 C          63.8825   93.5163   -0.1131 C.ar    1  UNL1       -0.0057
     10 C          63.1029   92.9904    1.0554 C.ar    1  UNL1       -0.0248
     11 C          63.7875   92.1625    2.1023 C.3     1  UNL1        0.0262
     12 C          63.0078   91.6366    3.2708 C.3     1  UNL1        0.0083
     13 C          61.5435   91.9384    3.3925 C.3     1  UNL1        0.0429
     14 O          58.2539   90.1064    5.7433 O.2     1  UNL1       -0.2751
     15 C          59.6392   90.0057    6.3097 C.2     1  UNL1        0.2220
     16 N          60.7738   90.7322    5.6503 N.am    1  UNL1       -0.3059
     17 H          61.6830   90.6661    6.0220 H       1  UNL1        0.1494
     18 C          59.8899   89.1784    7.5356 C.3     1  UNL1        0.0800
     19 C          59.8957   87.6813    7.4417 C.3     1  UNL1        0.0344
     20 C          60.1463   86.8539    8.6675 C.3     1  UNL1        0.1513
     21 S          60.3913   87.5236    9.9871 S.O2    1  UNL1       -0.0100
     22 O          60.6721   87.6939   11.4508 O.2     1  UNL1       -0.1730
     23 O          60.4945   86.0857   10.4016 O.2     1  UNL1       -0.1730
     24 C          60.3855   89.0206   10.0810 C.3     1  UNL1        0.1513
     25 C          60.1349   89.8480    8.8553 C.3     1  UNL1        0.0344
     26 S          60.0426   93.5760    1.3823 S.O2    1  UNL1        0.0090
     27 O          59.8102   93.0463    0.8337 O.2     1  UNL1       -0.1684
     28 O          60.2897   94.8050    2.2059 O.2     1  UNL1       -0.1684
     29 C          59.2263   94.3857    0.4189 C.ar    1  UNL1        0.1060
     30 C          58.3768   93.6971   -0.6078 C.ar    1  UNL1        0.0207
     31 C          57.5605   94.5068   -1.5711 C.ar    1  UNL1        0.0310
     32 C          57.5937   96.0050   -1.5077 C.ar    1  UNL1        0.1402
     33 F          56.7773   96.8148   -2.4711 F       1  UNL1       -0.2042
     34 C          58.4431   96.6937   -0.4810 C.ar    1  UNL1        0.0310
     35 C          59.2594   95.8840    0.4823 C.ar    1  UNL1        0.0207
     36 C          63.9776   94.8702   -2.3286 C.3     1  UNL1        0.3242
     37 F          64.9704   95.4869   -1.3885 F       1  UNL1       -0.2176
     38 C          64.7572   95.3962   -3.4971 C.3     1  UNL1        0.4363
     39 F          65.5369   95.9221   -4.6657 F       1  UNL1       -0.1666
     40 F          64.6567   96.7848   -2.9391 F       1  UNL1       -0.1666
     41 F          64.9521   94.0819   -4.1935 F       1  UNL1       -0.1666
     42 C          62.9848   94.2534   -3.2687 C.3     1  UNL1        0.4363
     43 F          61.9919   93.6365   -4.2088 F       1  UNL1       -0.1666
     44 F          62.5031   95.5308   -3.8899 F       1  UNL1       -0.1666
     45 F          63.0971   92.7817   -3.0009 F       1  UNL1       -0.1666
@<TRIPOS>BOND
     1    14    15    2
     2    15    16   am
     3     1    16    1
     4     1     2    1
     5     2     3    1
     6     3     4    1
     7     4    26    1
     8    26    27    2
     9    26    28    2
    10    26    29    1
    11    29    30   ar
    12    30    31   ar
    13    31    32   ar
    14    32    33    1
    15    32    34   ar
    16    34    35   ar
    17     4     5    1
    18     5     6   ar
    19     6     7   ar
    20     7     8   ar
    21     8    36    1
    22    36    37    1
    23    36    38    1
    24    38    39    1
    25    38    40    1
    26    38    41    1
    27    36    42    1
    28    42    43    1
    29    42    44    1
    30    42    45    1
    31     8     9   ar
    32     9    10   ar
    33    10    11    1
    34    11    12    1
    35    13    12    1
    36    15    18    1
    37    18    19    1
    38    19    20    1
    39    20    21    1
    40    21    22    2
    41    21    23    2
    42    21    24    1
    43    24    25    1
    44    13     1    1
    45    25    18    1
    46    13     4    1
    47    35    29   ar
    48    10     5   ar
    49    16    17    1
