@<TRIPOS>MOLECULE
*****
 34 37 0 0 0
SMALL
GASTEIGER

@<TRIPOS>ATOM
      1 C          62.5974   85.2015   12.2509 C.3     1  UNL1        0.1532
      2 C          62.2680   78.4033   13.2128 C.3     1  UNL1        0.0897
      3 N          62.4699   79.8186   12.7589 N.3     1  UNL1       -0.2686
      4 C          63.1501   80.0971   11.4514 C.3     1  UNL1        0.0939
      5 C          63.3520   81.5125   10.9975 C.3     1  UNL1        0.1108
      6 N          62.8737   82.6493   11.8512 N.am    1  UNL1       -0.2753
      7 C          63.0757   84.0647   11.3973 C.2     1  UNL1        0.2439
      8 O          63.7559   84.3432   10.0898 O.2     1  UNL1       -0.2731
      9 C          62.1935   82.3708   13.1587 C.3     1  UNL1        0.1108
     10 C          61.9916   80.9555   13.6126 C.3     1  UNL1        0.0939
     11 N          61.9191   84.9231   13.5596 N.am    1  UNL1       -0.2978
     12 C          62.6752   85.0834   14.8452 C.2     1  UNL1        0.2257
     13 O          61.9307   84.7967   15.9343 O.2     1  UNL1       -0.2748
     14 H          60.9778   84.6352   13.5747 H       1  UNL1        0.1498
     15 C          64.1095   85.5221   14.8221 C.3     1  UNL1        0.0884
     16 C          65.6002   85.4599   14.6676 C.3     1  UNL1        0.0135
     17 C          64.7702   84.2321   14.4358 C.3     1  UNL1        0.0135
     18 C          63.9467   86.9644   15.2003 C.ar    1  UNL1       -0.0040
     19 C          64.3229   88.0421   14.2271 C.ar    1  UNL1       -0.0021
     20 C          64.1602   89.4844   14.6053 C.ar    1  UNL1        0.0111
     21 C          63.6212   89.8492   15.9567 C.ar    1  UNL1        0.0585
     22 CL         63.4584   91.2917   16.3350 Cl      1  UNL1       -0.0822
     23 C          63.2450   88.7717   16.9300 C.ar    1  UNL1        0.0225
     24 C          63.4077   87.3292   16.5518 C.ar    1  UNL1        0.0550
     25 CL         63.0272   86.4811   17.5307 Cl      1  UNL1       -0.0825
     26 C          62.7972   86.6168   11.7960 C.3     1  UNL1        0.0562
     27 C          61.9195   87.1909   10.7235 C.ar    1  UNL1       -0.0094
     28 C          61.0404   86.2876    9.9104 C.ar    1  UNL1       -0.0025
     29 C          60.1627   86.8617    8.8379 C.ar    1  UNL1        0.0111
     30 C          60.1642   88.3391    8.5786 C.ar    1  UNL1        0.0585
     31 CL         59.2866   88.9132    7.5062 Cl      1  UNL1       -0.0822
     32 C          61.0434   89.2424    9.3918 C.ar    1  UNL1        0.0225
     33 C          61.9210   88.6683   10.4642 C.ar    1  UNL1        0.0546
     34 CL         62.8002   89.5716   11.2773 Cl      1  UNL1       -0.0825
@<TRIPOS>BOND
     1     2     3    1
     2     3     4    1
     3     4     5    1
     4     5     6    1
     5     6     7   am
     6     7     8    2
     7     7     1    1
     8     1    26    1
     9    26    27    1
    10    27    28   ar
    11    28    29   ar
    12    29    30   ar
    13    30    31    1
    14    30    32   ar
    15    32    33   ar
    16    33    34    1
    17     1    11    1
    18    11    12   am
    19    12    13    2
    20    12    15    1
    21    15    18    1
    22    18    19   ar
    23    19    20   ar
    24    20    21   ar
    25    21    22    1
    26    21    23   ar
    27    23    24   ar
    28    24    25    1
    29    15    16    1
    30    16    17    1
    31     6     9    1
    32     9    10    1
    33    10     3    1
    34    33    27   ar
    35    17    15    1
    36    24    18   ar
    37    11    14    1
@<TRIPOS>MOLECULE
*****
 34 37 0 0 0
SMALL
GASTEIGER

@<TRIPOS>ATOM
      1 C          63.4655   89.8389   14.9588 C.3     1  UNL1        0.1532
      2 C          69.5836   92.9618   14.7031 C.3     1  UNL1        0.0897
      3 N          68.1863   92.4778   14.9544 N.3     1  UNL1       -0.2686
      4 C          67.3178   93.1805   15.9553 C.3     1  UNL1        0.0939
      5 C          65.9205   92.6964   16.2066 C.3     1  UNL1        0.1108
      6 N          65.3916   91.5097   15.4571 N.am    1  UNL1       -0.2753
      7 C          63.9943   91.0257   15.7084 C.2     1  UNL1        0.2439
      8 O          63.1258   91.7284   16.7093 O.2     1  UNL1       -0.2731
      9 C          66.2601   90.8070   14.4562 C.3     1  UNL1        0.1108
     10 C          67.6575   91.2910   14.2048 C.3     1  UNL1        0.0939
     11 N          62.0076   89.7577   14.6151 N.am    1  UNL1       -0.2978
     12 C          61.5669   89.8654   13.1854 C.2     1  UNL1        0.2257
     13 O          60.2281   89.7740   13.0377 O.2     1  UNL1       -0.2748
     14 H          61.3399   89.6336   15.3280 H       1  UNL1        0.1498
     15 C          62.5842   90.0545   12.0993 C.3     1  UNL1        0.0884
     16 C          63.7483   90.6204   11.3413 C.3     1  UNL1        0.0135
     17 C          63.3604   91.2056   12.6670 C.3     1  UNL1        0.0135
     18 C          62.1612   88.9689   11.1545 C.ar    1  UNL1       -0.0040
     19 C          62.6686   87.5701   11.3438 C.ar    1  UNL1       -0.0021
     20 C          62.2456   86.4845   10.3991 C.ar    1  UNL1        0.0111
     21 C          61.3152   86.7977    9.2650 C.ar    1  UNL1        0.0585
     22 CL         60.8921   85.7121    8.3202 Cl      1  UNL1       -0.0822
     23 C          60.8077   88.1964    9.0757 C.ar    1  UNL1        0.0225
     24 C          61.2307   89.2821   10.0204 C.ar    1  UNL1        0.0550
     25 CL         60.6917   90.4827    9.7197 Cl      1  UNL1       -0.0825
     26 C          64.3944   88.7334   14.5529 C.3     1  UNL1        0.0562
     27 C          64.0020   87.3032   14.7782 C.ar    1  UNL1       -0.0094
     28 C          64.1927   86.2922   13.6867 C.ar    1  UNL1       -0.0025
     29 C          63.8002   84.8621   13.9121 C.ar    1  UNL1        0.0111
     30 C          63.2170   84.4430   15.2290 C.ar    1  UNL1        0.0585
     31 CL         62.8245   83.0130   15.4544 Cl      1  UNL1       -0.0822
     32 C          63.0263   85.4541   16.3206 C.ar    1  UNL1        0.0225
     33 C          63.4188   86.8842   16.0952 C.ar    1  UNL1        0.0546
     34 CL         63.2280   87.8953   17.1867 Cl      1  UNL1       -0.0825
@<TRIPOS>BOND
     1     2     3    1
     2     3     4    1
     3     4     5    1
     4     5     6    1
     5     6     7   am
     6     7     8    2
     7     7     1    1
     8     1    26    1
     9    26    27    1
    10    27    28   ar
    11    28    29   ar
    12    29    30   ar
    13    30    31    1
    14    30    32   ar
    15    32    33   ar
    16    33    34    1
    17     1    11    1
    18    11    12   am
    19    12    13    2
    20    12    15    1
    21    15    18    1
    22    18    19   ar
    23    19    20   ar
    24    20    21   ar
    25    21    22    1
    26    21    23   ar
    27    23    24   ar
    28    24    25    1
    29    15    16    1
    30    16    17    1
    31     6     9    1
    32     9    10    1
    33    10     3    1
    34    33    27   ar
    35    17    15    1
    36    24    18   ar
    37    11    14    1
@<TRIPOS>MOLECULE
*****
 34 37 0 0 0
SMALL
GASTEIGER

@<TRIPOS>ATOM
      1 C          62.9071   85.6111   12.4285 C.3     1  UNL1        0.1532
      2 C          59.0491   87.8065    7.1801 C.3     1  UNL1        0.0897
      3 N          59.9630   87.6016    8.3517 N.3     1  UNL1       -0.2686
      4 C          60.6748   88.7727    8.9614 C.3     1  UNL1        0.0939
      5 C          61.5888   88.5679   10.1330 C.3     1  UNL1        0.1108
      6 N          61.7910   87.1919   10.6950 N.am    1  UNL1       -0.2753
      7 C          62.7049   86.9871   11.8666 C.2     1  UNL1        0.2439
      8 O          63.4167   88.1582   12.4763 O.2     1  UNL1       -0.2731
      9 C          61.0792   86.0208   10.0853 C.3     1  UNL1        0.1108
     10 C          60.1652   86.2257    8.9136 C.3     1  UNL1        0.0939
     11 N          62.0593   85.1355   13.5710 N.am    1  UNL1       -0.2978
     12 C          62.6460   85.0305   14.9474 C.2     1  UNL1        0.2257
     13 O          61.7607   84.5888   15.8660 O.2     1  UNL1       -0.2748
     14 H          61.1178   84.8922   13.4173 H       1  UNL1        0.1498
     15 C          64.0806   85.4012   15.1815 C.3     1  UNL1        0.0884
     16 C          65.5707   85.2691   15.2916 C.3     1  UNL1        0.0135
     17 C          64.7388   84.0819   14.9060 C.3     1  UNL1        0.0135
     18 C          63.9204   86.8494   15.5382 C.ar    1  UNL1       -0.0040
     19 C          64.4588   87.9107   14.6250 C.ar    1  UNL1       -0.0021
     20 C          64.2986   89.3588   14.9817 C.ar    1  UNL1        0.0111
     21 C          63.6002   89.7457   16.2515 C.ar    1  UNL1        0.0585
     22 CL         63.4400   91.1939   16.6082 Cl      1  UNL1       -0.0822
     23 C          63.0619   88.6845   17.1647 C.ar    1  UNL1        0.0225
     24 C          63.2220   87.2363   16.8080 C.ar    1  UNL1        0.0550
     25 CL         62.6867   86.4044   17.7267 Cl      1  UNL1       -0.0825
     26 C          63.9570   84.7107   11.8481 C.3     1  UNL1        0.0562
     27 C          63.6394   83.2718   11.5673 C.ar    1  UNL1       -0.0094
     28 C          63.4098   82.3191   12.7028 C.ar    1  UNL1       -0.0025
     29 C          63.0921   80.8802   12.4220 C.ar    1  UNL1        0.0111
     30 C          63.0040   80.3942   11.0057 C.ar    1  UNL1        0.0585
     31 CL         62.6864   78.9554   10.7248 Cl      1  UNL1       -0.0822
     32 C          63.2337   81.3470    9.8701 C.ar    1  UNL1        0.0225
     33 C          63.5513   82.7858   10.1509 C.ar    1  UNL1        0.0546
     34 CL         63.7809   83.7387    9.0154 Cl      1  UNL1       -0.0825
@<TRIPOS>BOND
     1     2     3    1
     2     3     4    1
     3     4     5    1
     4     5     6    1
     5     6     7   am
     6     7     8    2
     7     7     1    1
     8     1    26    1
     9    26    27    1
    10    27    28   ar
    11    28    29   ar
    12    29    30   ar
    13    30    31    1
    14    30    32   ar
    15    32    33   ar
    16    33    34    1
    17     1    11    1
    18    11    12   am
    19    12    13    2
    20    12    15    1
    21    15    18    1
    22    18    19   ar
    23    19    20   ar
    24    20    21   ar
    25    21    22    1
    26    21    23   ar
    27    23    24   ar
    28    24    25    1
    29    15    16    1
    30    16    17    1
    31     6     9    1
    32     9    10    1
    33    10     3    1
    34    33    27   ar
    35    17    15    1
    36    24    18   ar
    37    11    14    1
@<TRIPOS>MOLECULE
*****
 34 37 0 0 0
SMALL
GASTEIGER

@<TRIPOS>ATOM
      1 C          63.0464   89.4622   12.6957 C.3     1  UNL1        0.1532
      2 C          67.6345   94.0847   14.8940 C.3     1  UNL1        0.0897
      3 N          66.6577   93.2107   14.1646 N.3     1  UNL1       -0.2686
      4 C          66.3616   93.4633   12.7160 C.3     1  UNL1        0.0939
      5 C          65.3848   92.5893   11.9866 C.3     1  UNL1        0.1108
      6 N          64.7040   91.4627   12.7059 N.am    1  UNL1       -0.2753
      7 C          63.7272   90.5888   11.9765 C.2     1  UNL1        0.2439
      8 O          63.4312   90.8413   10.5279 O.2     1  UNL1       -0.2731
      9 C          65.0000   91.2102   14.1545 C.3     1  UNL1        0.1108
     10 C          65.9769   92.0842   14.8838 C.3     1  UNL1        0.0939
     11 N          61.5492   89.4207   12.7778 N.am    1  UNL1       -0.2978
     12 C          60.7690   88.5684   11.8213 C.2     1  UNL1        0.2257
     13 O          59.4356   88.6367   12.0209 O.2     1  UNL1       -0.2748
     14 H          61.0786   89.9529   13.4594 H       1  UNL1        0.1498
     15 C          61.4860   87.7576   10.7827 C.3     1  UNL1        0.0884
     16 C          62.4330   86.7656   10.1751 C.3     1  UNL1        0.0135
     17 C          62.3972   86.9543   11.6628 C.3     1  UNL1        0.0135
     18 C          60.8238   88.2794    9.5421 C.ar    1  UNL1       -0.0040
     19 C          60.7957   89.7544    9.2707 C.ar    1  UNL1       -0.0021
     20 C          60.1335   90.2762    8.0301 C.ar    1  UNL1        0.0111
     21 C          59.4995   89.3231    7.0608 C.ar    1  UNL1        0.0585
     22 CL         58.8372   89.8449    5.8201 Cl      1  UNL1       -0.0822
     23 C          59.5276   87.8481    7.3321 C.ar    1  UNL1        0.0225
     24 C          60.1898   87.3262    8.5728 C.ar    1  UNL1        0.0550
     25 CL         60.1329   85.9814    8.6752 Cl      1  UNL1       -0.0825
     26 C          63.8628   88.3771   13.3330 C.3     1  UNL1        0.0562
     27 C          63.5876   87.9647   14.7487 C.ar    1  UNL1       -0.0094
     28 C          63.1155   88.9797   15.7472 C.ar    1  UNL1       -0.0025
     29 C          62.8403   88.5673   17.1630 C.ar    1  UNL1        0.0111
     30 C          63.0374   87.1401   17.5802 C.ar    1  UNL1        0.0585
     31 CL         62.7623   86.7277   18.9959 Cl      1  UNL1       -0.0822
     32 C          63.5096   86.1251   16.5817 C.ar    1  UNL1        0.0225
     33 C          63.7847   86.5375   15.1660 C.ar    1  UNL1        0.0546
     34 CL         64.2569   85.5226   14.1674 Cl      1  UNL1       -0.0825
@<TRIPOS>BOND
     1     2     3    1
     2     3     4    1
     3     4     5    1
     4     5     6    1
     5     6     7   am
     6     7     8    2
     7     7     1    1
     8     1    26    1
     9    26    27    1
    10    27    28   ar
    11    28    29   ar
    12    29    30   ar
    13    30    31    1
    14    30    32   ar
    15    32    33   ar
    16    33    34    1
    17     1    11    1
    18    11    12   am
    19    12    13    2
    20    12    15    1
    21    15    18    1
    22    18    19   ar
    23    19    20   ar
    24    20    21   ar
    25    21    22    1
    26    21    23   ar
    27    23    24   ar
    28    24    25    1
    29    15    16    1
    30    16    17    1
    31     6     9    1
    32     9    10    1
    33    10     3    1
    34    33    27   ar
    35    17    15    1
    36    24    18   ar
    37    11    14    1
@<TRIPOS>MOLECULE
*****
 34 37 0 0 0
SMALL
GASTEIGER

@<TRIPOS>ATOM
      1 C          63.3459   84.3032   13.5613 C.3     1  UNL1        0.1532
      2 C          62.6903   78.1685   10.5305 C.3     1  UNL1        0.0897
      3 N          62.7248   79.3758   11.4200 N.3     1  UNL1       -0.2686
      4 C          62.2417   79.2777   12.8366 C.3     1  UNL1        0.0939
      5 C          62.2762   80.4851   13.7261 C.3     1  UNL1        0.1108
      6 N          62.7938   81.7905   13.1989 N.am    1  UNL1       -0.2753
      7 C          62.8283   82.9978   14.0884 C.2     1  UNL1        0.2439
      8 O          62.3452   82.8997   15.5051 O.2     1  UNL1       -0.2731
      9 C          63.2769   81.8885   11.7823 C.3     1  UNL1        0.1108
     10 C          63.2424   80.6812   10.8928 C.3     1  UNL1        0.0939
     11 N          64.7634   84.7124   13.8323 N.am    1  UNL1       -0.2978
     12 C          65.0588   85.7438   14.8806 C.2     1  UNL1        0.2257
     13 O          66.3773   86.0047   15.0072 O.2     1  UNL1       -0.2748
     14 H          65.4998   84.3041   13.3222 H       1  UNL1        0.1498
     15 C          63.9368   86.3660   15.6579 C.3     1  UNL1        0.0884
     16 C          62.8598   86.5351   16.6881 C.3     1  UNL1        0.0135
     17 C          63.6768   85.2774   16.6565 C.3     1  UNL1        0.0135
     18 C          63.8072   87.6706   14.9290 C.ar    1  UNL1       -0.0040
     19 C          63.9314   87.7103   13.4347 C.ar    1  UNL1       -0.0021
     20 C          63.8019   89.0149   12.7058 C.ar    1  UNL1        0.0111
     21 C          63.5482   90.2797   13.4711 C.ar    1  UNL1        0.0585
     22 CL         63.4186   91.5844   12.7422 Cl      1  UNL1       -0.0822
     23 C          63.4239   90.2400   14.9654 C.ar    1  UNL1        0.0225
     24 C          63.5535   88.9354   15.6944 C.ar    1  UNL1        0.0550
     25 CL         63.4182   89.0626   17.0315 Cl      1  UNL1       -0.0825
     26 C          62.4462   85.1994   12.7630 C.3     1  UNL1        0.0562
     27 C          62.5081   85.1820   11.2643 C.ar    1  UNL1       -0.0094
     28 C          63.4392   84.2379   10.5631 C.ar    1  UNL1       -0.0025
     29 C          63.5011   84.2205    9.0644 C.ar    1  UNL1        0.0111
     30 C          62.6319   85.1472    8.2671 C.ar    1  UNL1        0.0585
     31 CL         62.6938   85.1299    6.7685 Cl      1  UNL1       -0.0822
     32 C          61.7008   86.0913    8.9684 C.ar    1  UNL1        0.0225
     33 C          61.6389   86.1087   10.4670 C.ar    1  UNL1        0.0546
     34 CL         60.7078   87.0528   11.1683 Cl      1  UNL1       -0.0825
@<TRIPOS>BOND
     1     2     3    1
     2     3     4    1
     3     4     5    1
     4     5     6    1
     5     6     7   am
     6     7     8    2
     7     7     1    1
     8     1    26    1
     9    26    27    1
    10    27    28   ar
    11    28    29   ar
    12    29    30   ar
    13    30    31    1
    14    30    32   ar
    15    32    33   ar
    16    33    34    1
    17     1    11    1
    18    11    12   am
    19    12    13    2
    20    12    15    1
    21    15    18    1
    22    18    19   ar
    23    19    20   ar
    24    20    21   ar
    25    21    22    1
    26    21    23   ar
    27    23    24   ar
    28    24    25    1
    29    15    16    1
    30    16    17    1
    31     6     9    1
    32     9    10    1
    33    10     3    1
    34    33    27   ar
    35    17    15    1
    36    24    18   ar
    37    11    14    1
@<TRIPOS>MOLECULE
*****
 34 37 0 0 0
SMALL
GASTEIGER

@<TRIPOS>ATOM
      1 C          62.3682   87.5178   11.4593 C.3     1  UNL1        0.1532
      2 C          62.9673   80.7102   12.1994 C.3     1  UNL1        0.0897
      3 N          63.0185   82.2082   12.2566 N.3     1  UNL1       -0.2686
      4 C          63.8739   82.8908   13.2824 C.3     1  UNL1        0.0939
      5 C          63.9252   84.3889   13.3395 C.3     1  UNL1        0.1108
      6 N          63.1211   85.2043   12.3708 N.am    1  UNL1       -0.2753
      7 C          63.1723   86.7024   12.4279 C.2     1  UNL1        0.2439
      8 O          64.0277   87.3849   13.4537 O.2     1  UNL1       -0.2731
      9 C          62.2657   84.5217   11.3450 C.3     1  UNL1        0.1108
     10 C          62.2144   83.0237   11.2879 C.3     1  UNL1        0.0939
     11 N          61.1094   88.1956   11.9134 N.am    1  UNL1       -0.2978
     12 C          60.9207   89.6645   11.6751 C.2     1  UNL1        0.2257
     13 O          59.7405   90.1269   12.1397 O.2     1  UNL1       -0.2748
     14 H          60.4072   87.6764   12.3678 H       1  UNL1        0.1498
     15 C          61.9907   90.4556   10.9827 C.3     1  UNL1        0.0884
     16 C          62.7434   91.1523    9.8882 C.3     1  UNL1        0.0135
     17 C          61.4485   90.4587    9.5842 C.3     1  UNL1        0.0135
     18 C          62.9044   90.7270   12.1409 C.ar    1  UNL1       -0.0040
     19 C          62.5498   90.2257   13.5095 C.ar    1  UNL1       -0.0021
     20 C          63.4635   90.4971   14.6677 C.ar    1  UNL1        0.0111
     21 C          64.7318   91.2698   14.4574 C.ar    1  UNL1        0.0585
     22 CL         65.6455   91.5413   15.6157 Cl      1  UNL1       -0.0822
     23 C          65.0864   91.7712   13.0890 C.ar    1  UNL1        0.0225
     24 C          64.1727   91.4998   11.9307 C.ar    1  UNL1        0.0550
     25 CL         64.6277   92.0138   10.7682 Cl      1  UNL1       -0.0825
     26 C          62.8228   87.6555   10.0364 C.3     1  UNL1        0.0562
     27 C          62.3380   86.6884    8.9973 C.ar    1  UNL1       -0.0094
     28 C          63.2841   85.6853    8.4069 C.ar    1  UNL1       -0.0025
     29 C          62.7993   84.7181    7.3677 C.ar    1  UNL1        0.0111
     30 C          61.3684   84.7542    6.9191 C.ar    1  UNL1        0.0585
     31 CL         60.8836   83.7871    5.8800 Cl      1  UNL1       -0.0822
     32 C          60.4223   85.7574    7.5095 C.ar    1  UNL1        0.0225
     33 C          60.9071   86.7244    8.5486 C.ar    1  UNL1        0.0546
     34 CL         59.9610   87.7276    9.1391 Cl      1  UNL1       -0.0825
@<TRIPOS>BOND
     1     2     3    1
     2     3     4    1
     3     4     5    1
     4     5     6    1
     5     6     7   am
     6     7     8    2
     7     7     1    1
     8     1    26    1
     9    26    27    1
    10    27    28   ar
    11    28    29   ar
    12    29    30   ar
    13    30    31    1
    14    30    32   ar
    15    32    33   ar
    16    33    34    1
    17     1    11    1
    18    11    12   am
    19    12    13    2
    20    12    15    1
    21    15    18    1
    22    18    19   ar
    23    19    20   ar
    24    20    21   ar
    25    21    22    1
    26    21    23   ar
    27    23    24   ar
    28    24    25    1
    29    15    16    1
    30    16    17    1
    31     6     9    1
    32     9    10    1
    33    10     3    1
    34    33    27   ar
    35    17    15    1
    36    24    18   ar
    37    11    14    1
@<TRIPOS>MOLECULE
*****
 34 37 0 0 0
SMALL
GASTEIGER

@<TRIPOS>ATOM
      1 C          58.2568   95.1228   -1.2070 C.3     1  UNL1        0.1532
      2 C          51.6553   96.0241   -2.8974 C.3     1  UNL1        0.0897
      3 N          53.1468   96.0124   -2.7390 N.3     1  UNL1       -0.2686
      4 C          54.0031   96.8551   -3.6370 C.3     1  UNL1        0.0939
      5 C          55.4947   96.8434   -3.4785 C.3     1  UNL1        0.1108
      6 N          56.1299   95.9890   -2.4220 N.am    1  UNL1       -0.2753
      7 C          57.6215   95.9772   -2.2635 C.2     1  UNL1        0.2439
      8 O          58.4778   96.8200   -3.1616 O.2     1  UNL1       -0.2731
      9 C          55.2737   95.1462   -1.5239 C.3     1  UNL1        0.1108
     10 C          53.7821   95.1580   -1.6824 C.3     1  UNL1        0.0939
     11 N          58.4735   95.6722    0.1719 N.am    1  UNL1       -0.2978
     12 C          59.8670   95.9058    0.6757 C.2     1  UNL1        0.2257
     13 O          59.8979   96.4018    1.9309 O.2     1  UNL1       -0.2748
     14 H          57.7012   95.8796    0.7462 H       1  UNL1        0.1498
     15 C          61.0436   95.5899   -0.1994 C.3     1  UNL1        0.0884
     16 C          62.0056   95.6617   -1.3481 C.3     1  UNL1        0.0135
     17 C          60.8340   96.5968   -1.2912 C.3     1  UNL1        0.0135
     18 C          61.6618   94.4732    0.5886 C.ar    1  UNL1       -0.0040
     19 C          61.0172   93.1188    0.6026 C.ar    1  UNL1       -0.0021
     20 C          61.6353   92.0022    1.3906 C.ar    1  UNL1        0.0111
     21 C          62.8980   92.2399    2.1646 C.ar    1  UNL1        0.0585
     22 CL         63.5162   91.1232    2.9527 Cl      1  UNL1       -0.0822
     23 C          63.5426   93.5942    2.1506 C.ar    1  UNL1        0.0225
     24 C          62.9245   94.7109    1.3626 C.ar    1  UNL1        0.0550
     25 CL         63.6194   95.8651    1.4489 Cl      1  UNL1       -0.0825
     26 C          58.6753   93.7189   -1.5292 C.3     1  UNL1        0.0562
     27 C          57.7664   92.8291   -2.3244 C.ar    1  UNL1       -0.0094
     28 C          56.7018   92.0321   -1.6305 C.ar    1  UNL1       -0.0025
     29 C          55.7928   91.1423   -2.4256 C.ar    1  UNL1        0.0111
     30 C          55.9486   91.0495   -3.9146 C.ar    1  UNL1        0.0585
     31 CL         55.0397   90.1598   -4.7098 Cl      1  UNL1       -0.0822
     32 C          57.0133   91.8465   -4.6085 C.ar    1  UNL1        0.0225
     33 C          57.9221   92.7362   -3.8134 C.ar    1  UNL1        0.0546
     34 CL         58.9868   93.5332   -4.5072 Cl      1  UNL1       -0.0825
@<TRIPOS>BOND
     1     2     3    1
     2     3     4    1
     3     4     5    1
     4     5     6    1
     5     6     7   am
     6     7     8    2
     7     7     1    1
     8     1    26    1
     9    26    27    1
    10    27    28   ar
    11    28    29   ar
    12    29    30   ar
    13    30    31    1
    14    30    32   ar
    15    32    33   ar
    16    33    34    1
    17     1    11    1
    18    11    12   am
    19    12    13    2
    20    12    15    1
    21    15    18    1
    22    18    19   ar
    23    19    20   ar
    24    20    21   ar
    25    21    22    1
    26    21    23   ar
    27    23    24   ar
    28    24    25    1
    29    15    16    1
    30    16    17    1
    31     6     9    1
    32     9    10    1
    33    10     3    1
    34    33    27   ar
    35    17    15    1
    36    24    18   ar
    37    11    14    1
@<TRIPOS>MOLECULE
*****
 34 37 0 0 0
SMALL
GASTEIGER

@<TRIPOS>ATOM
      1 C          62.9605   85.7244   13.1062 C.3     1  UNL1        0.1532
      2 C          64.2142   92.3897   11.9871 C.3     1  UNL1        0.0897
      3 N          64.0947   90.9737   12.4676 N.3     1  UNL1       -0.2686
      4 C          64.7510   90.5594   13.7512 C.3     1  UNL1        0.0939
      5 C          64.6315   89.1435   14.2317 C.3     1  UNL1        0.1108
      6 N          63.8557   88.1419   13.4287 N.am    1  UNL1       -0.2753
      7 C          63.7363   86.7260   13.9092 C.2     1  UNL1        0.2439
      8 O          64.3926   86.3117   15.1927 O.2     1  UNL1       -0.2731
      9 C          63.1994   88.5562   12.1451 C.3     1  UNL1        0.1108
     10 C          63.3189   89.9721   11.6646 C.3     1  UNL1        0.0939
     11 N          61.9336   84.8598   13.7756 N.am    1  UNL1       -0.2978
     12 C          62.2994   83.4793   14.2342 C.2     1  UNL1        0.2257
     13 O          61.2708   82.8270   14.8166 O.2     1  UNL1       -0.2748
     14 H          61.0196   85.1984   13.9140 H       1  UNL1        0.1498
     15 C          63.6920   82.9633   14.0234 C.3     1  UNL1        0.0884
     16 C          65.1653   82.7613   14.2203 C.3     1  UNL1        0.0135
     17 C          64.4077   83.6880   15.1245 C.3     1  UNL1        0.0135
     18 C          63.4598   82.0595   12.8490 C.ar    1  UNL1       -0.0040
     19 C          63.7652   82.5397   11.4611 C.ar    1  UNL1       -0.0021
     20 C          63.5330   81.6359   10.2867 C.ar    1  UNL1        0.0111
     21 C          62.9955   80.2519   10.5001 C.ar    1  UNL1        0.0585
     22 CL         62.7632   79.3481    9.3257 Cl      1  UNL1       -0.0822
     23 C          62.6901   79.7717   11.8879 C.ar    1  UNL1        0.0225
     24 C          62.9223   80.6755   13.0624 C.ar    1  UNL1        0.0550
     25 CL         62.6007   80.1017   14.2413 Cl      1  UNL1       -0.0825
     26 C          63.2115   85.5873   11.6337 C.3     1  UNL1        0.0562
     27 C          62.1640   86.0197   10.6509 C.ar    1  UNL1       -0.0094
     28 C          60.9968   86.8415   11.1116 C.ar    1  UNL1       -0.0025
     29 C          59.9493   87.2739   10.1288 C.ar    1  UNL1        0.0111
     30 C          60.0690   86.8843    8.6852 C.ar    1  UNL1        0.0585
     31 CL         59.0216   87.3166    7.7024 Cl      1  UNL1       -0.0822
     32 C          61.2362   86.0625    8.2245 C.ar    1  UNL1        0.0225
     33 C          62.2836   85.6301    9.2073 C.ar    1  UNL1        0.0546
     34 CL         63.4509   84.8083    8.7465 Cl      1  UNL1       -0.0825
@<TRIPOS>BOND
     1     2     3    1
     2     3     4    1
     3     4     5    1
     4     5     6    1
     5     6     7   am
     6     7     8    2
     7     7     1    1
     8     1    26    1
     9    26    27    1
    10    27    28   ar
    11    28    29   ar
    12    29    30   ar
    13    30    31    1
    14    30    32   ar
    15    32    33   ar
    16    33    34    1
    17     1    11    1
    18    11    12   am
    19    12    13    2
    20    12    15    1
    21    15    18    1
    22    18    19   ar
    23    19    20   ar
    24    20    21   ar
    25    21    22    1
    26    21    23   ar
    27    23    24   ar
    28    24    25    1
    29    15    16    1
    30    16    17    1
    31     6     9    1
    32     9    10    1
    33    10     3    1
    34    33    27   ar
    35    17    15    1
    36    24    18   ar
    37    11    14    1
@<TRIPOS>MOLECULE
*****
 34 37 0 0 0
SMALL
GASTEIGER

@<TRIPOS>ATOM
      1 C          63.1538   89.2571   12.2600 C.3     1  UNL1        0.1532
      2 C          67.5422   93.2241   15.7607 C.3     1  UNL1        0.0897
      3 N          66.4179   92.3874   15.2259 N.3     1  UNL1       -0.2686
      4 C          65.1851   92.1711   16.0524 C.3     1  UNL1        0.0939
      5 C          64.0608   91.3344   15.5176 C.3     1  UNL1        0.1108
      6 N          64.1694   90.7141   14.1562 N.am    1  UNL1       -0.2753
      7 C          63.0452   89.8774   13.6214 C.2     1  UNL1        0.2439
      8 O          61.8123   89.6610   14.4479 O.2     1  UNL1       -0.2731
      9 C          65.4023   90.9304   13.3297 C.3     1  UNL1        0.1108
     10 C          66.5265   91.7671   13.8645 C.3     1  UNL1        0.0939
     11 N          62.8810   90.0809   11.0365 N.am    1  UNL1       -0.2978
     12 C          61.6494   89.8251   10.2193 C.2     1  UNL1        0.2257
     13 O          61.5445   90.6456    9.1524 O.2     1  UNL1       -0.2748
     14 H          63.5103   90.7895   10.7698 H       1  UNL1        0.1498
     15 C          60.6906   88.7454   10.6257 C.3     1  UNL1        0.0884
     16 C          59.6236   88.0240   11.3944 C.3     1  UNL1        0.0135
     17 C          60.0460   89.4020   11.8103 C.3     1  UNL1        0.0135
     18 C          61.0024   87.7141    9.5821 C.ar    1  UNL1       -0.0040
     19 C          62.2974   86.9591    9.6372 C.ar    1  UNL1       -0.0021
     20 C          62.6093   85.9277    8.5937 C.ar    1  UNL1        0.0111
     21 C          61.6261   85.6513    7.4950 C.ar    1  UNL1        0.0585
     22 CL         61.9379   84.6198    6.4514 Cl      1  UNL1       -0.0822
     23 C          60.3311   86.4061    7.4399 C.ar    1  UNL1        0.0225
     24 C          60.0192   87.4376    8.4835 C.ar    1  UNL1        0.0550
     25 CL         58.8199   88.0291    8.2986 Cl      1  UNL1       -0.0825
     26 C          63.5351   87.8129   12.1221 C.3     1  UNL1        0.0562
     27 C          63.5073   86.9121   13.3212 C.ar    1  UNL1       -0.0094
     28 C          64.1818   87.3347   14.5925 C.ar    1  UNL1       -0.0025
     29 C          64.1540   86.4338   15.7916 C.ar    1  UNL1        0.0111
     30 C          63.4517   85.1103   15.7192 C.ar    1  UNL1        0.0585
     31 CL         63.4239   84.2095   16.9182 Cl      1  UNL1       -0.0822
     32 C          62.7772   84.6878   14.4478 C.ar    1  UNL1        0.0225
     33 C          62.8050   85.5886   13.2488 C.ar    1  UNL1        0.0546
     34 CL         62.1305   85.1660   11.9773 Cl      1  UNL1       -0.0825
@<TRIPOS>BOND
     1     2     3    1
     2     3     4    1
     3     4     5    1
     4     5     6    1
     5     6     7   am
     6     7     8    2
     7     7     1    1
     8     1    26    1
     9    26    27    1
    10    27    28   ar
    11    28    29   ar
    12    29    30   ar
    13    30    31    1
    14    30    32   ar
    15    32    33   ar
    16    33    34    1
    17     1    11    1
    18    11    12   am
    19    12    13    2
    20    12    15    1
    21    15    18    1
    22    18    19   ar
    23    19    20   ar
    24    20    21   ar
    25    21    22    1
    26    21    23   ar
    27    23    24   ar
    28    24    25    1
    29    15    16    1
    30    16    17    1
    31     6     9    1
    32     9    10    1
    33    10     3    1
    34    33    27   ar
    35    17    15    1
    36    24    18   ar
    37    11    14    1
