@<TRIPOS>MOLECULE
*****
 34 36 0 0 0
SMALL
GASTEIGER

@<TRIPOS>ATOM
      1 N          61.2751   86.4713   11.1800 N.am    1  UNL1       -0.2560
      2 C          60.8315   86.0054    9.8249 C.3     1  UNL1        0.1394
      3 C          60.7049   87.2094    8.9393 C.ar    1  UNL1        0.0662
      4 C          60.3525   87.6656    7.5544 C.ar    1  UNL1        0.0247
      5 C          60.5000   89.1575    7.5063 C.ar    1  UNL1        0.0614
      6 C          60.9435   89.6234    8.8614 C.ar    1  UNL1        0.0922
      7 N          61.0702   88.4194    9.7470 N.ar    1  UNL1       -0.2624
      8 C          61.4226   87.9633   11.1318 C.2     1  UNL1        0.3234
      9 O          61.8478   88.8444   12.2689 O.2     1  UNL1       -0.2490
     10 C          60.2481   90.0303    6.3127 C.1     1  UNL1       -0.0497
     11 C          59.9963   90.9032    5.1191 C.1     1  UNL1       -0.0095
     12 C          59.7444   91.7761    3.9255 C.1     1  UNL1       -0.0138
     13 C          59.4926   92.6490    2.7318 C.1     1  UNL1       -0.0761
     14 C          59.2408   93.5218    1.5383 C.3     1  UNL1        0.0969
     15 C          59.6430   94.9096    1.1353 C.3     1  UNL1        0.0867
     16 N          58.8847   94.7562   -0.1497 N.3     1  UNL1       -0.2685
     17 C          58.4825   93.3684    0.2532 C.3     1  UNL1        0.0867
     18 C          58.6329   95.6290   -1.3434 C.3     1  UNL1        0.1108
     19 C          57.2683   96.2073   -1.5751 C.3     1  UNL1        0.2105
     20 F          56.0476   95.4308   -1.1790 F       1  UNL1       -0.2328
     21 C          61.5269   85.5985   12.3736 C.3     1  UNL1        0.0977
     22 C          62.8884   85.0105   12.5989 C.3     1  UNL1        0.0524
     23 C          63.2648   82.8329   14.6277 C.3     1  UNL1        0.0331
     24 C          63.0766   83.9217   13.6132 C.3     1  UNL1        0.1820
     25 C          62.9884   84.9342   14.7165 C.2     1  UNL1        0.2640
     26 O          63.9142   86.1143   14.7272 O.2     1  UNL1       -0.2713
     27 N          61.9743   84.7665   15.8090 N.am    1  UNL1       -0.1956
     28 O          61.8860   85.7790   16.9122 O.3     1  UNL1       -0.2951
     29 H          61.3666   83.9920   15.8019 H       1  UNL1        0.1823
     30 H          62.5498   86.4717   16.7692 H       1  UNL1        0.2414
     31 S          63.1649   82.9092   12.5101 S.O2    1  UNL1       -0.0034
     32 C          63.2533   81.8967   11.4069 C.3     1  UNL1        0.1765
     33 O          64.2834   83.6886   11.8843 O.2     1  UNL1       -0.1726
     34 O          62.0465   82.1298   13.1359 O.2     1  UNL1       -0.1726
@<TRIPOS>BOND
     1    24    23    1
     2    24    22    1
     3    22    21    1
     4    21     1    1
     5     1     2    1
     6     2     3    1
     7     3     4   ar
     8     4     5   ar
     9     5    10    1
    10    10    11    3
    11    11    12    1
    12    12    13    3
    13    13    14    1
    14    14    15    1
    15    15    16    1
    16    16    18    1
    17    18    19    1
    18    19    20    1
    19    16    17    1
    20     5     6   ar
    21     6     7   ar
    22     7     8   am
    23     8     9    2
    24    24    25    1
    25    25    26    2
    26    25    27   am
    27    27    28    1
    28    24    31    1
    29    31    32    1
    30    31    33    2
    31    31    34    2
    32     8     1   am
    33     7     3   ar
    34    17    14    1
    35    27    29    1
    36    28    30    1
@<TRIPOS>MOLECULE
*****
 34 36 0 0 0
SMALL
GASTEIGER

@<TRIPOS>ATOM
      1 N          61.4852   86.4086   11.3019 N.am    1  UNL1       -0.2560
      2 C          60.9030   85.9672    9.9918 C.3     1  UNL1        0.1394
      3 C          60.8136   87.1673    9.0964 C.ar    1  UNL1        0.0662
      4 C          60.3985   87.6362    7.7334 C.ar    1  UNL1        0.0247
      5 C          60.6689   89.1091    7.6477 C.ar    1  UNL1        0.0614
      6 C          61.2512   89.5505    8.9577 C.ar    1  UNL1        0.0922
      7 N          61.3406   88.3504    9.8531 N.ar    1  UNL1       -0.2624
      8 C          61.7557   87.8816   11.2161 C.2     1  UNL1        0.3234
      9 O          62.3389   88.7356   12.3026 O.2     1  UNL1       -0.2490
     10 C          60.4037   89.9866    6.4604 C.1     1  UNL1       -0.0497
     11 C          60.1385   90.8641    5.2731 C.1     1  UNL1       -0.0095
     12 C          59.8732   91.7415    4.0857 C.1     1  UNL1       -0.0138
     13 C          59.6080   92.6189    2.8983 C.1     1  UNL1       -0.0761
     14 C          59.3428   93.4963    1.7111 C.3     1  UNL1        0.0969
     15 C          58.6002   93.3350    0.4177 C.3     1  UNL1        0.0867
     16 N          58.9677   94.7371    0.0319 N.3     1  UNL1       -0.2685
     17 C          59.7102   94.8985    1.3252 C.3     1  UNL1        0.0867
     18 C          58.7025   95.6146   -1.1554 C.3     1  UNL1        0.1108
     19 C          57.3563   96.2527   -1.3306 C.3     1  UNL1        0.2105
     20 F          56.1102   95.4505   -1.0987 F       1  UNL1       -0.2328
     21 C          61.7504   85.5312   12.4892 C.3     1  UNL1        0.0977
     22 C          63.1616   85.2359   12.9033 C.3     1  UNL1        0.0524
     23 C          63.7715   82.7712   14.5012 C.3     1  UNL1        0.0331
     24 C          63.4666   84.0036   13.7022 C.3     1  UNL1        0.1820
     25 C          63.5281   83.1990   12.4378 C.2     1  UNL1        0.2640
     26 O          62.4455   82.2090   12.1253 O.2     1  UNL1       -0.2713
     27 N          64.6724   83.3845   11.4858 N.am    1  UNL1       -0.1956
     28 O          64.7340   82.5799   10.2213 O.3     1  UNL1       -0.2951
     29 H          65.3830   84.0343   11.6909 H       1  UNL1        0.1823
     30 H          63.9633   81.9927   10.1739 H       1  UNL1        0.2414
     31 S          63.4050   84.8081   14.9667 S.O2    1  UNL1       -0.0034
     32 C          63.3434   85.6125   16.2313 C.3     1  UNL1        0.1765
     33 O          62.3484   83.8872   15.5011 O.2     1  UNL1       -0.1726
     34 O          64.4615   85.7290   14.4324 O.2     1  UNL1       -0.1726
@<TRIPOS>BOND
     1    24    23    1
     2    24    22    1
     3    22    21    1
     4    21     1    1
     5     1     2    1
     6     2     3    1
     7     3     4   ar
     8     4     5   ar
     9     5    10    1
    10    10    11    3
    11    11    12    1
    12    12    13    3
    13    13    14    1
    14    14    15    1
    15    15    16    1
    16    16    18    1
    17    18    19    1
    18    19    20    1
    19    16    17    1
    20     5     6   ar
    21     6     7   ar
    22     7     8   am
    23     8     9    2
    24    24    25    1
    25    25    26    2
    26    25    27   am
    27    27    28    1
    28    24    31    1
    29    31    32    1
    30    31    33    2
    31    31    34    2
    32     8     1   am
    33     7     3   ar
    34    17    14    1
    35    27    29    1
    36    28    30    1
@<TRIPOS>MOLECULE
*****
 34 36 0 0 0
SMALL
GASTEIGER

@<TRIPOS>ATOM
      1 N          60.0412   95.8733   -2.6730 N.am    1  UNL1       -0.2560
      2 C          59.4238   96.2931   -1.3720 C.3     1  UNL1        0.1394
      3 C          59.6424   95.1910   -0.3782 C.ar    1  UNL1        0.0662
      4 C          59.3959   94.7694    1.0401 C.ar    1  UNL1        0.0247
      5 C          59.9961   93.4078    1.2298 C.ar    1  UNL1        0.0614
      6 C          60.6135   92.9880   -0.0712 C.ar    1  UNL1        0.0922
      7 N          60.3949   94.0901   -1.0650 N.ar    1  UNL1       -0.2624
      8 C          60.6414   94.5117   -2.4832 C.2     1  UNL1        0.3234
      9 O          61.3616   93.7122   -3.5283 O.2     1  UNL1       -0.2490
     10 C          59.9814   92.6067    2.4979 C.1     1  UNL1       -0.0497
     11 C          59.9667   91.8056    3.7659 C.1     1  UNL1       -0.0095
     12 C          59.9521   91.0044    5.0340 C.1     1  UNL1       -0.0138
     13 C          59.9373   90.2032    6.3020 C.1     1  UNL1       -0.0761
     14 C          59.9226   89.4021    7.5700 C.3     1  UNL1        0.0969
     15 C          59.3743   88.0655    7.9739 C.3     1  UNL1        0.0867
     16 N          59.9017   88.2690    9.3632 N.3     1  UNL1       -0.2685
     17 C          60.4500   89.6056    8.9594 C.3     1  UNL1        0.0867
     18 C          59.8870   87.4679   10.6313 C.3     1  UNL1        0.1108
     19 C          61.1100   86.7084   11.0528 C.3     1  UNL1        0.2105
     20 F          61.4777   85.4322   10.3556 F       1  UNL1       -0.2328
     21 C          60.0559   96.6743   -3.9411 C.3     1  UNL1        0.0977
     22 C          58.9247   96.5521   -4.9186 C.3     1  UNL1        0.0524
     23 C          58.4833   93.9737   -6.3872 C.3     1  UNL1        0.0331
     24 C          58.7039   95.2629   -5.6529 C.3     1  UNL1        0.1820
     25 C          59.9558   95.4995   -6.4446 C.2     1  UNL1        0.2640
     26 O          60.0640   96.7014   -7.3354 O.2     1  UNL1       -0.2713
     27 N          61.0996   94.5341   -6.3454 N.am    1  UNL1       -0.1956
     28 O          62.3515   94.7706   -7.1372 O.3     1  UNL1       -0.2951
     29 H          61.0286   93.7452   -5.7607 H       1  UNL1        0.1823
     30 H          62.2568   95.5845   -7.6563 H       1  UNL1        0.2414
     31 S          57.4521   95.0263   -4.8612 S.O2    1  UNL1       -0.0034
     32 C          56.2002   94.7895   -4.0695 C.3     1  UNL1        0.1765
     33 O          57.9747   93.6862   -4.4355 O.2     1  UNL1       -0.1726
     34 O          56.9295   96.3662   -5.2869 O.2     1  UNL1       -0.1726
@<TRIPOS>BOND
     1    24    23    1
     2    24    22    1
     3    22    21    1
     4    21     1    1
     5     1     2    1
     6     2     3    1
     7     3     4   ar
     8     4     5   ar
     9     5    10    1
    10    10    11    3
    11    11    12    1
    12    12    13    3
    13    13    14    1
    14    14    15    1
    15    15    16    1
    16    16    18    1
    17    18    19    1
    18    19    20    1
    19    16    17    1
    20     5     6   ar
    21     6     7   ar
    22     7     8   am
    23     8     9    2
    24    24    25    1
    25    25    26    2
    26    25    27   am
    27    27    28    1
    28    24    31    1
    29    31    32    1
    30    31    33    2
    31    31    34    2
    32     8     1   am
    33     7     3   ar
    34    17    14    1
    35    27    29    1
    36    28    30    1
@<TRIPOS>MOLECULE
*****
 34 36 0 0 0
SMALL
GASTEIGER

@<TRIPOS>ATOM
      1 N          58.9998   96.0403   -2.7894 N.am    1  UNL1       -0.2560
      2 C          60.0166   96.2202   -1.7014 C.3     1  UNL1        0.1394
      3 C          59.7486   95.1926   -0.6420 C.ar    1  UNL1        0.0662
      4 C          60.2115   94.6687    0.6851 C.ar    1  UNL1        0.0247
      5 C          59.3151   93.5299    1.0721 C.ar    1  UNL1        0.0614
      6 C          58.2983   93.3500   -0.0159 C.ar    1  UNL1        0.0922
      7 N          58.5662   94.3776   -1.0753 N.ar    1  UNL1       -0.2624
      8 C          58.1034   94.9015   -2.4024 C.2     1  UNL1        0.3234
      9 O          56.9472   94.3785   -3.2022 O.2     1  UNL1       -0.2490
     10 C          59.4176   92.7142    2.3267 C.1     1  UNL1       -0.0497
     11 C          59.5200   91.8985    3.5814 C.1     1  UNL1       -0.0095
     12 C          59.6225   91.0829    4.8361 C.1     1  UNL1       -0.0138
     13 C          59.7250   90.2673    6.0908 C.1     1  UNL1       -0.0761
     14 C          59.8274   89.4517    7.3454 C.3     1  UNL1        0.0969
     15 C          59.4619   88.0490    7.7316 C.3     1  UNL1        0.0867
     16 N          59.9722   88.2982    9.1198 N.3     1  UNL1       -0.2685
     17 C          60.3377   89.7008    8.7338 C.3     1  UNL1        0.0867
     18 C          60.0747   87.4826   10.3746 C.3     1  UNL1        0.1108
     19 C          61.1438   86.4386   10.5052 C.3     1  UNL1        0.2105
     20 F          61.9980   86.0878    9.3231 F       1  UNL1       -0.2328
     21 C          58.8973   96.8560   -4.0440 C.3     1  UNL1        0.0977
     22 C          60.0253   96.8560   -5.0328 C.3     1  UNL1        0.0524
     23 C          60.6309   94.3818   -6.6175 C.3     1  UNL1        0.0331
     24 C          60.3281   95.6190   -5.8251 C.3     1  UNL1        0.1820
     25 C          58.9532   95.6653   -6.4231 C.2     1  UNL1        0.2640
     26 O          58.5567   96.8130   -7.3037 O.2     1  UNL1       -0.2713
     27 N          57.9749   94.5639   -6.1405 N.am    1  UNL1       -0.1956
     28 O          56.6000   94.6103   -6.7384 O.3     1  UNL1       -0.2951
     29 H          58.2352   93.8106   -5.5625 H       1  UNL1        0.1823
     30 H          56.5084   95.4120   -7.2768 H       1  UNL1        0.2414
     31 S          61.7030   95.5725   -5.2273 S.O2    1  UNL1       -0.0034
     32 C          63.0779   95.5260   -4.6293 C.3     1  UNL1        0.1765
     33 O          61.3361   94.3243   -4.4807 O.2     1  UNL1       -0.1726
     34 O          62.0699   96.8206   -5.9738 O.2     1  UNL1       -0.1726
@<TRIPOS>BOND
     1    24    23    1
     2    24    22    1
     3    22    21    1
     4    21     1    1
     5     1     2    1
     6     2     3    1
     7     3     4   ar
     8     4     5   ar
     9     5    10    1
    10    10    11    3
    11    11    12    1
    12    12    13    3
    13    13    14    1
    14    14    15    1
    15    15    16    1
    16    16    18    1
    17    18    19    1
    18    19    20    1
    19    16    17    1
    20     5     6   ar
    21     6     7   ar
    22     7     8   am
    23     8     9    2
    24    24    25    1
    25    25    26    2
    26    25    27   am
    27    27    28    1
    28    24    31    1
    29    31    32    1
    30    31    33    2
    31    31    34    2
    32     8     1   am
    33     7     3   ar
    34    17    14    1
    35    27    29    1
    36    28    30    1
@<TRIPOS>MOLECULE
*****
 34 36 0 0 0
SMALL
GASTEIGER

@<TRIPOS>ATOM
      1 N          58.9562   95.4513   -2.5255 N.am    1  UNL1       -0.2560
      2 C          58.0964   94.3003   -2.0941 C.3     1  UNL1        0.1394
      3 C          58.5709   93.8472   -0.7452 C.ar    1  UNL1        0.0662
      4 C          58.3327   92.8558    0.3550 C.ar    1  UNL1        0.0247
      5 C          59.3386   93.1141    1.4373 C.ar    1  UNL1        0.0614
      6 C          60.1984   94.2651    1.0061 C.ar    1  UNL1        0.0922
      7 N          59.7239   94.7182   -0.3428 N.ar    1  UNL1       -0.2624
      8 C          59.9621   95.7095   -1.4430 C.2     1  UNL1        0.3234
      9 O          61.0203   96.7725   -1.4582 O.2     1  UNL1       -0.2490
     10 C          59.4629   92.3547    2.7249 C.1     1  UNL1       -0.0497
     11 C          59.5872   91.5953    4.0125 C.1     1  UNL1       -0.0095
     12 C          59.7115   90.8360    5.3002 C.1     1  UNL1       -0.0138
     13 C          59.8358   90.0767    6.5878 C.1     1  UNL1       -0.0761
     14 C          59.9601   89.3174    7.8754 C.3     1  UNL1        0.0969
     15 C          60.3251   89.6739    9.2861 C.3     1  UNL1        0.0867
     16 N          60.1360   88.2436    9.6964 N.3     1  UNL1       -0.2685
     17 C          59.7710   87.8871    8.2858 C.3     1  UNL1        0.0867
     18 C          60.2603   87.4842   10.9840 C.3     1  UNL1        0.1108
     19 C          61.2181   86.3345   11.0871 C.3     1  UNL1        0.2105
     20 F          61.4886   85.4738    9.8887 F       1  UNL1       -0.2328
     21 C          58.8319   96.2107   -3.8130 C.3     1  UNL1        0.0977
     22 C          57.8119   95.7972   -4.8322 C.3     1  UNL1        0.0524
     23 C          58.5500   93.8445   -6.9866 C.3     1  UNL1        0.0331
     24 C          58.1809   94.8209   -5.9094 C.3     1  UNL1        0.1820
     25 C          57.2605   93.8036   -5.3028 C.2     1  UNL1        0.2640
     26 O          55.8867   94.2072   -4.8559 O.2     1  UNL1       -0.2713
     27 N          57.7139   92.3828   -5.1430 N.am    1  UNL1       -0.1956
     28 O          56.7935   91.3655   -4.5364 O.3     1  UNL1       -0.2951
     29 H          58.6156   92.1179   -5.4363 H       1  UNL1        0.1823
     30 H          55.9519   91.7884   -4.3046 H       1  UNL1        0.2414
     31 S          59.1013   95.8381   -6.5161 S.O2    1  UNL1       -0.0034
     32 C          60.0219   96.8552   -7.1227 C.3     1  UNL1        0.1765
     33 O          60.2533   94.8905   -6.3571 O.2     1  UNL1       -0.1726
     34 O          57.9496   96.7857   -6.6750 O.2     1  UNL1       -0.1726
@<TRIPOS>BOND
     1    24    23    1
     2    24    22    1
     3    22    21    1
     4    21     1    1
     5     1     2    1
     6     2     3    1
     7     3     4   ar
     8     4     5   ar
     9     5    10    1
    10    10    11    3
    11    11    12    1
    12    12    13    3
    13    13    14    1
    14    14    15    1
    15    15    16    1
    16    16    18    1
    17    18    19    1
    18    19    20    1
    19    16    17    1
    20     5     6   ar
    21     6     7   ar
    22     7     8   am
    23     8     9    2
    24    24    25    1
    25    25    26    2
    26    25    27   am
    27    27    28    1
    28    24    31    1
    29    31    32    1
    30    31    33    2
    31    31    34    2
    32     8     1   am
    33     7     3   ar
    34    17    14    1
    35    27    29    1
    36    28    30    1
@<TRIPOS>MOLECULE
*****
 34 36 0 0 0
SMALL
GASTEIGER

@<TRIPOS>ATOM
      1 N          61.2112   86.4900   11.3024 N.am    1  UNL1       -0.2560
      2 C          60.8151   87.9367   11.3201 C.3     1  UNL1        0.1394
      3 C          60.6811   88.3981    9.8991 C.ar    1  UNL1        0.0662
      4 C          60.3535   89.5773    9.0319 C.ar    1  UNL1        0.0247
      5 C          60.4643   89.1446    7.6000 C.ar    1  UNL1        0.0614
      6 C          60.8604   87.6979    7.5822 C.ar    1  UNL1        0.0922
      7 N          60.9944   87.2365    9.0032 N.ar    1  UNL1       -0.2624
      8 C          61.3220   86.0573    9.8704 C.2     1  UNL1        0.3234
      9 O          61.6950   84.6861    9.3901 O.2     1  UNL1       -0.2490
     10 C          60.2216   90.0070    6.3970 C.1     1  UNL1       -0.0497
     11 C          59.9790   90.8695    5.1939 C.1     1  UNL1       -0.0095
     12 C          59.7363   91.7319    3.9908 C.1     1  UNL1       -0.0138
     13 C          59.4936   92.5943    2.7877 C.1     1  UNL1       -0.0761
     14 C          59.2510   93.4565    1.5847 C.3     1  UNL1        0.0969
     15 C          59.6665   94.8362    1.1672 C.3     1  UNL1        0.0867
     16 N          58.9078   94.6761   -0.1168 N.3     1  UNL1       -0.2685
     17 C          58.4923   93.2966    0.3006 C.3     1  UNL1        0.0867
     18 C          58.6651   95.5384   -1.3200 C.3     1  UNL1        0.1108
     19 C          59.4280   95.2895   -2.5872 C.3     1  UNL1        0.2105
     20 F          60.3738   94.1288   -2.6776 F       1  UNL1       -0.2328
     21 C          61.4539   85.6276   12.5054 C.3     1  UNL1        0.0977
     22 C          62.8243   85.0780   12.7701 C.3     1  UNL1        0.0524
     23 C          63.2099   82.9442   14.8433 C.3     1  UNL1        0.0331
     24 C          63.0171   84.0111   13.8066 C.3     1  UNL1        0.1820
     25 C          62.9169   85.0446   14.8891 C.2     1  UNL1        0.2640
     26 O          63.8174   86.2441   14.8665 O.2     1  UNL1       -0.2713
     27 N          61.9164   84.8787   15.9942 N.am    1  UNL1       -0.1956
     28 O          61.8162   85.9123   17.0767 O.3     1  UNL1       -0.2951
     29 H          61.3254   84.0915   16.0091 H       1  UNL1        0.1823
     30 H          62.4638   86.6156   16.9131 H       1  UNL1        0.2414
     31 S          63.1172   82.9775   12.7243 S.O2    1  UNL1       -0.0034
     32 C          63.2173   81.9438   11.6419 C.3     1  UNL1        0.1765
     33 O          62.0423   82.1730   13.3931 O.2     1  UNL1       -0.1726
     34 O          64.1921   83.7819   12.0554 O.2     1  UNL1       -0.1726
@<TRIPOS>BOND
     1    24    23    1
     2    24    22    1
     3    22    21    1
     4    21     1    1
     5     1     2    1
     6     2     3    1
     7     3     4   ar
     8     4     5   ar
     9     5    10    1
    10    10    11    3
    11    11    12    1
    12    12    13    3
    13    13    14    1
    14    14    15    1
    15    15    16    1
    16    16    18    1
    17    18    19    1
    18    19    20    1
    19    16    17    1
    20     5     6   ar
    21     6     7   ar
    22     7     8   am
    23     8     9    2
    24    24    25    1
    25    25    26    2
    26    25    27   am
    27    27    28    1
    28    24    31    1
    29    31    32    1
    30    31    33    2
    31    31    34    2
    32     8     1   am
    33     7     3   ar
    34    17    14    1
    35    27    29    1
    36    28    30    1
@<TRIPOS>MOLECULE
*****
 34 36 0 0 0
SMALL
GASTEIGER

@<TRIPOS>ATOM
      1 N          61.2737   86.2516   11.4719 N.am    1  UNL1       -0.2560
      2 C          60.7628   87.6617   11.4996 C.3     1  UNL1        0.1394
      3 C          60.6784   88.1521   10.0846 C.ar    1  UNL1        0.0662
      4 C          60.3105   89.3266    9.2272 C.ar    1  UNL1        0.0247
      5 C          60.5418   88.9455    7.7950 C.ar    1  UNL1        0.0614
      6 C          61.0527   87.5355    7.7672 C.ar    1  UNL1        0.0922
      7 N          61.1371   87.0451    9.1823 N.ar    1  UNL1       -0.2624
      8 C          61.5050   85.8705   10.0396 C.2     1  UNL1        0.3234
      9 O          62.0147   84.5472    9.5506 O.2     1  UNL1       -0.2490
     10 C          60.3041   89.8208    6.6003 C.1     1  UNL1       -0.0497
     11 C          60.0663   90.6961    5.4055 C.1     1  UNL1       -0.0095
     12 C          59.8286   91.5714    4.2108 C.1     1  UNL1       -0.0138
     13 C          59.5908   92.4467    3.0161 C.1     1  UNL1       -0.0761
     14 C          59.3530   93.3220    1.8215 C.3     1  UNL1        0.0969
     15 C          59.7324   94.7223    1.4401 C.3     1  UNL1        0.0867
     16 N          59.0168   94.5599    0.1319 N.3     1  UNL1       -0.2685
     17 C          58.6374   93.1596    0.5132 C.3     1  UNL1        0.0867
     18 C          58.7790   95.4351   -1.0628 C.3     1  UNL1        0.1108
     19 C          59.8886   95.6882   -2.0399 C.3     1  UNL1        0.2105
     20 F          61.2472   95.0989   -1.8009 F       1  UNL1       -0.2328
     21 C          61.5114   85.3764   12.6666 C.3     1  UNL1        0.0977
     22 C          62.7859   84.5935   12.7811 C.3     1  UNL1        0.0524
     23 C          63.4242   83.1298   15.3208 C.3     1  UNL1        0.0331
     24 C          63.1050   83.8617   14.0509 C.3     1  UNL1        0.1820
     25 C          62.3555   82.6633   13.5487 C.2     1  UNL1        0.2640
     26 O          62.4399   82.2783   12.1014 O.2     1  UNL1       -0.2713
     27 N          61.5217   81.8500   14.4938 N.am    1  UNL1       -0.1956
     28 O          60.7723   80.6516   13.9916 O.3     1  UNL1       -0.2951
     29 H          61.4664   82.1027   15.4437 H       1  UNL1        0.1823
     30 H          60.9339   80.5441   13.0412 H       1  UNL1        0.2414
     31 S          63.8545   85.0600   14.5531 S.O2    1  UNL1       -0.0034
     32 C          64.6039   86.2583   15.0555 C.3     1  UNL1        0.1765
     33 O          62.7539   85.3372   15.5340 O.2     1  UNL1       -0.1726
     34 O          64.9550   84.7829   13.5724 O.2     1  UNL1       -0.1726
@<TRIPOS>BOND
     1    24    23    1
     2    24    22    1
     3    22    21    1
     4    21     1    1
     5     1     2    1
     6     2     3    1
     7     3     4   ar
     8     4     5   ar
     9     5    10    1
    10    10    11    3
    11    11    12    1
    12    12    13    3
    13    13    14    1
    14    14    15    1
    15    15    16    1
    16    16    18    1
    17    18    19    1
    18    19    20    1
    19    16    17    1
    20     5     6   ar
    21     6     7   ar
    22     7     8   am
    23     8     9    2
    24    24    25    1
    25    25    26    2
    26    25    27   am
    27    27    28    1
    28    24    31    1
    29    31    32    1
    30    31    33    2
    31    31    34    2
    32     8     1   am
    33     7     3   ar
    34    17    14    1
    35    27    29    1
    36    28    30    1
@<TRIPOS>MOLECULE
*****
 34 36 0 0 0
SMALL
GASTEIGER

@<TRIPOS>ATOM
      1 N          61.3919   86.3977   11.1480 N.am    1  UNL1       -0.2560
      2 C          61.2277   87.8883   11.1803 C.3     1  UNL1        0.1394
      3 C          60.9775   88.3577    9.7778 C.ar    1  UNL1        0.0662
      4 C          60.7215   89.5690    8.9310 C.ar    1  UNL1        0.0247
      5 C          60.5728   89.1170    7.5084 C.ar    1  UNL1        0.0614
      6 C          60.7370   87.6264    7.4760 C.ar    1  UNL1        0.0922
      7 N          60.9872   87.1571    8.8786 N.ar    1  UNL1       -0.2624
      8 C          61.2432   85.9457    9.7254 C.2     1  UNL1        0.3234
      9 O          61.3346   84.5309    9.2357 O.2     1  UNL1       -0.2490
     10 C          60.3067   90.0006    6.3258 C.1     1  UNL1       -0.0497
     11 C          60.0405   90.8841    5.1432 C.1     1  UNL1       -0.0095
     12 C          59.7744   91.7678    3.9607 C.1     1  UNL1       -0.0138
     13 C          59.5084   92.6515    2.7781 C.1     1  UNL1       -0.0761
     14 C          59.2424   93.5351    1.5957 C.3     1  UNL1        0.0969
     15 C          58.5366   93.3662    0.2828 C.3     1  UNL1        0.0867
     16 N          58.8661   94.7847   -0.0767 N.3     1  UNL1       -0.2685
     17 C          59.5718   94.9536    1.2362 C.3     1  UNL1        0.0867
     18 C          58.6000   95.6685   -1.2592 C.3     1  UNL1        0.1108
     19 C          59.2778   95.3931   -2.5687 C.3     1  UNL1        0.2105
     20 F          59.7207   94.0002   -2.9057 F       1  UNL1       -0.2328
     21 C          61.6580   85.5142   12.3305 C.3     1  UNL1        0.0977
     22 C          63.0657   85.1294   12.6777 C.3     1  UNL1        0.0524
     23 C          63.6598   83.8382   15.3196 C.3     1  UNL1        0.0331
     24 C          63.3627   84.4838   13.9986 C.3     1  UNL1        0.1820
     25 C          63.3678   85.8319   14.6564 C.2     1  UNL1        0.2640
     26 O          62.7335   86.0112   16.0038 O.2     1  UNL1       -0.2713
     27 N          64.0071   87.0005   13.9668 N.am    1  UNL1       -0.1956
     28 O          64.0121   88.3486   14.6247 O.3     1  UNL1       -0.2951
     29 H          64.4234   86.8828   13.0825 H       1  UNL1        0.1823
     30 H          63.5648   88.2909   15.4835 H       1  UNL1        0.2414
     31 S          63.3578   83.1358   13.3409 S.O2    1  UNL1       -0.0034
     32 C          63.3529   81.7877   12.6830 C.3     1  UNL1        0.1765
     33 O          64.4573   83.5799   12.4222 O.2     1  UNL1       -0.1726
     34 O          62.2583   82.6916   14.2594 O.2     1  UNL1       -0.1726
@<TRIPOS>BOND
     1    24    23    1
     2    24    22    1
     3    22    21    1
     4    21     1    1
     5     1     2    1
     6     2     3    1
     7     3     4   ar
     8     4     5   ar
     9     5    10    1
    10    10    11    3
    11    11    12    1
    12    12    13    3
    13    13    14    1
    14    14    15    1
    15    15    16    1
    16    16    18    1
    17    18    19    1
    18    19    20    1
    19    16    17    1
    20     5     6   ar
    21     6     7   ar
    22     7     8   am
    23     8     9    2
    24    24    25    1
    25    25    26    2
    26    25    27   am
    27    27    28    1
    28    24    31    1
    29    31    32    1
    30    31    33    2
    31    31    34    2
    32     8     1   am
    33     7     3   ar
    34    17    14    1
    35    27    29    1
    36    28    30    1
@<TRIPOS>MOLECULE
*****
 34 36 0 0 0
SMALL
GASTEIGER

@<TRIPOS>ATOM
      1 N          73.0354   74.9012   15.5660 N.am    1  UNL1       -0.2560
      2 C          72.8652   74.2941   14.2049 C.3     1  UNL1        0.1394
      3 C          72.9969   75.3896   13.1888 C.ar    1  UNL1        0.0662
      4 C          72.9732   75.6914   11.7197 C.ar    1  UNL1        0.0247
      5 C          73.2102   77.1622   11.5448 C.ar    1  UNL1        0.0614
      6 C          73.3804   77.7694   12.9058 C.ar    1  UNL1        0.0922
      7 N          73.2486   76.6739   13.9219 N.ar    1  UNL1       -0.2624
      8 C          73.2724   76.3721   15.3910 C.2     1  UNL1        0.3234
      9 O          73.4942   77.3665   16.4919 O.2     1  UNL1       -0.2490
     10 C          73.2670   77.8969   10.2382 C.1     1  UNL1       -0.0497
     11 C          73.3237   78.6315    8.9317 C.1     1  UNL1       -0.0095
     12 C          73.3806   79.3662    7.6251 C.1     1  UNL1       -0.0138
     13 C          73.4375   80.1008    6.3185 C.1     1  UNL1       -0.0761
     14 C          73.4944   80.8353    5.0120 C.3     1  UNL1        0.0969
     15 C          73.5640   80.4300    3.5694 C.3     1  UNL1        0.0867
     16 N          73.5749   81.8742    3.1642 N.3     1  UNL1       -0.2685
     17 C          73.5053   82.2795    4.6068 C.3     1  UNL1        0.0867
     18 C          73.6318   82.6088    1.8577 C.3     1  UNL1        0.1108
     19 C          73.4156   84.0927    1.8216 C.3     1  UNL1        0.2105
     20 F          72.8816   84.8024    3.0305 F       1  UNL1       -0.2328
     21 C          72.9786   74.1666   16.8724 C.3     1  UNL1        0.0977
     22 C          72.9934   72.6667   16.8909 C.3     1  UNL1        0.0524
     23 C          70.7948   71.1618   18.2696 C.3     1  UNL1        0.0331
     24 C          71.8942   71.9143   17.5802 C.3     1  UNL1        0.1820
     25 C          71.5009   73.1616   18.3147 C.2     1  UNL1        0.2640
     26 O          70.3388   73.9797   17.8348 O.2     1  UNL1       -0.2713
     27 N          72.2696   73.5908   19.5291 N.am    1  UNL1       -0.1956
     28 O          71.8763   74.8381   20.2636 O.3     1  UNL1       -0.2951
     29 H          73.0323   73.0538   19.8441 H       1  UNL1        0.1823
     30 H          71.1119   75.2439   19.8256 H       1  UNL1        0.2414
     31 S          72.2874   70.6669   16.8457 S.O2    1  UNL1       -0.0034
     32 C          72.6805   69.4195   16.1114 C.3     1  UNL1        0.1765
     33 O          71.2655   69.8887   17.6204 O.2     1  UNL1       -0.1726
     34 O          73.3092   71.4450   16.0711 O.2     1  UNL1       -0.1726
@<TRIPOS>BOND
     1    24    23    1
     2    24    22    1
     3    22    21    1
     4    21     1    1
     5     1     2    1
     6     2     3    1
     7     3     4   ar
     8     4     5   ar
     9     5    10    1
    10    10    11    3
    11    11    12    1
    12    12    13    3
    13    13    14    1
    14    14    15    1
    15    15    16    1
    16    16    18    1
    17    18    19    1
    18    19    20    1
    19    16    17    1
    20     5     6   ar
    21     6     7   ar
    22     7     8   am
    23     8     9    2
    24    24    25    1
    25    25    26    2
    26    25    27   am
    27    27    28    1
    28    24    31    1
    29    31    32    1
    30    31    33    2
    31    31    34    2
    32     8     1   am
    33     7     3   ar
    34    17    14    1
    35    27    29    1
    36    28    30    1
