@<TRIPOS>MOLECULE
*****
 33 35 0 0 0
SMALL
GASTEIGER

@<TRIPOS>ATOM
      1 C          64.0361   90.7984   12.8062 C.ar    1  UNL1        0.1544
      2 S          65.0451   91.9074   12.8507 S.2     1  UNL1       -0.0714
      3 C          65.0243   92.6066   11.5237 C.ar    1  UNL1        0.0086
      4 C          64.0024   91.9297   10.6592 C.ar    1  UNL1        0.0040
      5 C          63.3916   90.8122   11.4518 C.ar    1  UNL1        0.0252
      6 C          62.3238   89.8733   10.9738 C.ar    1  UNL1        0.0015
      7 C          60.8820   90.2821   11.0381 C.ar    1  UNL1        0.0000
      8 C          59.8143   89.3433   10.5601 C.ar    1  UNL1       -0.0003
      9 C          60.1883   87.9956   10.0179 C.ar    1  UNL1       -0.0024
     10 C          61.6301   87.5869    9.9536 C.ar    1  UNL1        0.0004
     11 C          62.6978   88.5257   10.4316 C.ar    1  UNL1       -0.0023
     12 C          62.0041   86.2392    9.4114 C.3     1  UNL1        0.1343
     13 N          62.5898   85.2008   10.3217 N.ar    1  UNL1       -0.3036
     14 C          63.5229   84.0984    9.9166 C.ar    1  UNL1        0.0983
     15 C          63.8550   83.2986   11.1414 C.ar    1  UNL1        0.1193
     16 N          63.1270   83.9067   12.3035 N.ar    1  UNL1       -0.2223
     17 C          62.3451   85.0823   11.7969 C.ar    1  UNL1        0.1789
     18 S          63.7259   89.8434   13.9205 S.O2    1  UNL1        0.0838
     19 O          62.2584   90.0482   13.6877 O.2     1  UNL1       -0.1493
     20 O          65.1936   89.6385   14.1533 O.2     1  UNL1       -0.1493
     21 C          63.2640   89.3966   16.4378 C.2     1  UNL1        0.4205
     22 O          63.4221   90.8601   16.7266 O.2     1  UNL1       -0.2248
     23 N          63.4159   88.8883   15.0348 N.am    1  UNL1       -0.1502
     24 H          63.3122   87.9278   14.8453 H       1  UNL1        0.1800
     25 O          62.9540   88.4414   17.5522 O.3     1  UNL1       -0.4337
     26 C          62.4237   87.0732   17.2414 C.3     1  UNL1        0.2102
     27 C          63.3719   85.9268   17.0505 C.3     1  UNL1        0.0475
     28 C          64.8629   85.6749   14.9378 C.3     1  UNL1        0.0001
     29 C          63.5979   85.3605   15.6800 C.3     1  UNL1        0.0038
     30 C          65.8759   93.7771   11.1304 C.3     1  UNL1        0.0330
     31 C          67.0121   93.5887   10.1694 C.3     1  UNL1        0.0049
     32 C          67.4447   94.7226    9.2879 C.3     1  UNL1        0.0004
     33 C          67.7157   92.2662   10.0899 C.3     1  UNL1        0.0004
@<TRIPOS>BOND
     1    28    29    1
     2    29    27    1
     3    27    26    1
     4    26    25    1
     5    25    21    1
     6    21    22    2
     7    21    23   am
     8    23    18    1
     9    18    19    2
    10    18    20    2
    11    18     1    1
    12     1     2   ar
    13     2     3   ar
    14     3    30    1
    15    30    31    1
    16    31    32    1
    17    31    33    1
    18     3     4   ar
    19     4     5   ar
    20     5     6    1
    21     6     7   ar
    22     7     8   ar
    23     8     9   ar
    24     9    10   ar
    25    10    12    1
    26    12    13    1
    27    13    14   ar
    28    14    15   ar
    29    15    16   ar
    30    16    17   ar
    31    10    11   ar
    32     5     1   ar
    33    11     6   ar
    34    17    13   ar
    35    23    24    1
@<TRIPOS>MOLECULE
*****
 33 35 0 0 0
SMALL
GASTEIGER

@<TRIPOS>ATOM
      1 C          61.8224   86.9038   10.9702 C.ar    1  UNL1        0.1544
      2 S          61.7012   85.4166   11.1236 S.2     1  UNL1       -0.0714
      3 C          62.6283   84.9868   12.2218 C.ar    1  UNL1        0.0086
      4 C          63.3224   86.2084   12.7470 C.ar    1  UNL1        0.0040
      5 C          62.8243   87.3931   11.9735 C.ar    1  UNL1        0.0252
      6 C          63.2530   88.8173   12.1690 C.ar    1  UNL1        0.0015
      7 C          63.0577   89.8172   11.0682 C.ar    1  UNL1        0.0000
      8 C          63.4863   91.2412   11.2637 C.ar    1  UNL1       -0.0003
      9 C          64.1104   91.6654   12.5602 C.ar    1  UNL1       -0.0024
     10 C          64.3057   90.6654   13.6610 C.ar    1  UNL1        0.0004
     11 C          63.8771   89.2414   13.4655 C.ar    1  UNL1       -0.0023
     12 C          64.9298   91.0896   14.9575 C.3     1  UNL1        0.1343
     13 N          66.2387   91.8221   14.9555 N.ar    1  UNL1       -0.3036
     14 C          66.7241   92.7630   16.0181 C.ar    1  UNL1        0.0983
     15 C          68.0775   93.2648   15.6100 C.ar    1  UNL1        0.1193
     16 N          68.4286   92.6339   14.2951 N.ar    1  UNL1       -0.2223
     17 C          67.2922   91.7423   13.8907 C.ar    1  UNL1        0.1789
     18 S          61.0732   87.7526    9.9863 S.O2    1  UNL1        0.0838
     19 O          62.1118   87.4613    8.9440 O.2     1  UNL1       -0.1493
     20 O          60.0344   88.0439   11.0286 O.2     1  UNL1       -0.1493
     21 C          59.4389   87.9570    7.9770 C.2     1  UNL1        0.4205
     22 O          59.3031   86.4637    7.9354 O.2     1  UNL1       -0.2248
     23 N          60.3239   88.6014    9.0024 N.am    1  UNL1       -0.1502
     24 H          60.4129   89.5814    9.0297 H       1  UNL1        0.1800
     25 O          58.6896   88.8059    6.9930 O.3     1  UNL1       -0.4337
     26 C          59.4112   89.8656    6.2143 C.3     1  UNL1        0.2102
     27 C          58.6409   90.8064    5.3361 C.3     1  UNL1        0.0475
     28 C          59.3691   92.4368    3.4489 C.3     1  UNL1        0.0001
     29 C          59.2559   92.1056    4.9075 C.3     1  UNL1        0.0038
     30 C          62.8264   83.5820   12.7091 C.3     1  UNL1        0.0330
     31 C          63.3370   82.5281   11.7718 C.3     1  UNL1        0.0049
     32 C          64.3294   82.8888   10.7065 C.3     1  UNL1        0.0004
     33 C          62.8553   81.1133   11.9000 C.3     1  UNL1        0.0004
@<TRIPOS>BOND
     1    28    29    1
     2    29    27    1
     3    27    26    1
     4    26    25    1
     5    25    21    1
     6    21    22    2
     7    21    23   am
     8    23    18    1
     9    18    19    2
    10    18    20    2
    11    18     1    1
    12     1     2   ar
    13     2     3   ar
    14     3    30    1
    15    30    31    1
    16    31    32    1
    17    31    33    1
    18     3     4   ar
    19     4     5   ar
    20     5     6    1
    21     6     7   ar
    22     7     8   ar
    23     8     9   ar
    24     9    10   ar
    25    10    12    1
    26    12    13    1
    27    13    14   ar
    28    14    15   ar
    29    15    16   ar
    30    16    17   ar
    31    10    11   ar
    32     5     1   ar
    33    11     6   ar
    34    17    13   ar
    35    23    24    1
@<TRIPOS>MOLECULE
*****
 33 35 0 0 0
SMALL
GASTEIGER

@<TRIPOS>ATOM
      1 C          60.9898   88.4383    9.7967 C.ar    1  UNL1        0.1544
      2 S          60.0559   89.2871    8.9861 S.2     1  UNL1       -0.0714
      3 C          59.6028   88.4802    7.8055 C.ar    1  UNL1        0.0086
      4 C          60.2568   87.1328    7.8865 C.ar    1  UNL1        0.0040
      5 C          61.1140   87.1068    9.1172 C.ar    1  UNL1        0.0252
      6 C          61.9488   85.9521    9.5860 C.ar    1  UNL1        0.0015
      7 C          62.9008   85.2820    8.6401 C.ar    1  UNL1        0.0000
      8 C          63.7356   84.1274    9.1089 C.ar    1  UNL1       -0.0003
      9 C          63.6184   83.6428   10.5236 C.ar    1  UNL1       -0.0024
     10 C          62.6665   84.3128   11.4695 C.ar    1  UNL1        0.0004
     11 C          61.8317   85.4675   11.0007 C.ar    1  UNL1       -0.0023
     12 C          62.5493   83.8282   12.8843 C.3     1  UNL1        0.1343
     13 N          63.0351   84.6871   14.0139 N.ar    1  UNL1       -0.3036
     14 C          62.7334   84.4836   15.4691 C.ar    1  UNL1        0.0983
     15 C          63.4197   85.5712   16.2414 C.ar    1  UNL1        0.1193
     16 N          64.1457   86.4468   15.2634 N.ar    1  UNL1       -0.2223
     17 C          63.9079   85.9005   13.8868 C.ar    1  UNL1        0.1789
     18 S          61.6786   88.8489   11.0644 S.O2    1  UNL1        0.0838
     19 O          62.9544   89.0577   10.3036 O.2     1  UNL1       -0.1493
     20 O          60.4028   88.6400   11.8253 O.2     1  UNL1       -0.1493
     21 C          63.0949   90.5694   12.4000 C.2     1  UNL1        0.4205
     22 O          63.1337   91.4689   11.2002 O.2     1  UNL1       -0.2248
     23 N          62.3674   89.2594   12.3320 N.am    1  UNL1       -0.1502
     24 H          62.3419   88.6691   13.1195 H       1  UNL1        0.1800
     25 O          63.7837   90.9800   13.6678 O.3     1  UNL1       -0.4337
     26 C          65.1888   91.5029   13.6225 C.3     1  UNL1        0.2102
     27 C          66.0007   91.5819   14.8813 C.3     1  UNL1        0.0475
     28 C          68.2240   92.2206   16.0639 C.3     1  UNL1        0.0001
     29 C          67.4650   91.8991   14.8107 C.3     1  UNL1        0.0038
     30 C          58.6611   88.9401    6.7323 C.3     1  UNL1        0.0330
     31 C          58.9961   90.1473    5.9073 C.3     1  UNL1        0.0049
     32 C          57.9027   91.0561    5.4294 C.3     1  UNL1        0.0004
     33 C          60.4247   90.4456    5.5603 C.3     1  UNL1        0.0004
@<TRIPOS>BOND
     1    28    29    1
     2    29    27    1
     3    27    26    1
     4    26    25    1
     5    25    21    1
     6    21    22    2
     7    21    23   am
     8    23    18    1
     9    18    19    2
    10    18    20    2
    11    18     1    1
    12     1     2   ar
    13     2     3   ar
    14     3    30    1
    15    30    31    1
    16    31    32    1
    17    31    33    1
    18     3     4   ar
    19     4     5   ar
    20     5     6    1
    21     6     7   ar
    22     7     8   ar
    23     8     9   ar
    24     9    10   ar
    25    10    12    1
    26    12    13    1
    27    13    14   ar
    28    14    15   ar
    29    15    16   ar
    30    16    17   ar
    31    10    11   ar
    32     5     1   ar
    33    11     6   ar
    34    17    13   ar
    35    23    24    1
@<TRIPOS>MOLECULE
*****
 33 35 0 0 0
SMALL
GASTEIGER

@<TRIPOS>ATOM
      1 C          60.9532   88.6446    9.7407 C.ar    1  UNL1        0.1544
      2 S          60.0166   89.4895    8.9289 S.2     1  UNL1       -0.0714
      3 C          59.5489   88.6722    7.7613 C.ar    1  UNL1        0.0086
      4 C          60.1964   87.3221    7.8515 C.ar    1  UNL1        0.0040
      5 C          61.0643   87.3051    9.0749 C.ar    1  UNL1        0.0252
      6 C          61.8971   86.1511    9.5491 C.ar    1  UNL1        0.0015
      7 C          62.7766   85.4140    8.5831 C.ar    1  UNL1        0.0000
      8 C          63.6093   84.2600    9.0574 C.ar    1  UNL1       -0.0003
      9 C          63.5626   83.8433   10.4976 C.ar    1  UNL1       -0.0024
     10 C          62.6832   84.5805   11.4635 C.ar    1  UNL1        0.0004
     11 C          61.8504   85.7344   10.9893 C.ar    1  UNL1       -0.0023
     12 C          62.6365   84.1637   12.9037 C.3     1  UNL1        0.1343
     13 N          62.8084   82.7200   13.2726 N.ar    1  UNL1       -0.3036
     14 C          61.9890   81.5745   12.7566 C.ar    1  UNL1        0.0983
     15 C          62.5042   80.3148   13.3875 C.ar    1  UNL1        0.1193
     16 N          63.6420   80.6819   14.2935 N.ar    1  UNL1       -0.2223
     17 C          63.8300   82.1683   14.2225 C.ar    1  UNL1        0.1789
     18 S          61.6553   89.0654   10.9976 S.O2    1  UNL1        0.0838
     19 O          62.9319   89.2337   10.2283 O.2     1  UNL1       -0.1493
     20 O          60.3787   88.8971   11.7671 O.2     1  UNL1       -0.1493
     21 C          63.1271   90.7732   12.2889 C.2     1  UNL1        0.4205
     22 O          63.1948   91.6395   11.0662 O.2     1  UNL1       -0.2248
     23 N          62.3574   89.4862   12.2546 N.am    1  UNL1       -0.1502
     24 H          62.3129   88.9177   13.0571 H       1  UNL1        0.1800
     25 O          63.8291   91.1939   13.5460 O.3     1  UNL1       -0.4337
     26 C          65.2568   91.6507   13.4908 C.3     1  UNL1        0.2102
     27 C          66.1597   91.4342   14.6688 C.3     1  UNL1        0.0475
     28 C          67.7091   93.1047   15.9172 C.3     1  UNL1        0.0001
     29 C          66.3459   92.5249   15.6816 C.3     1  UNL1        0.0038
     30 C          58.6003   89.1253    6.6914 C.3     1  UNL1        0.0330
     31 C          58.9682   90.2745    5.8003 C.3     1  UNL1        0.0049
     32 C          57.9018   91.1936    5.2827 C.3     1  UNL1        0.0004
     33 C          60.4028   90.5045    5.4268 C.3     1  UNL1        0.0004
@<TRIPOS>BOND
     1    28    29    1
     2    29    27    1
     3    27    26    1
     4    26    25    1
     5    25    21    1
     6    21    22    2
     7    21    23   am
     8    23    18    1
     9    18    19    2
    10    18    20    2
    11    18     1    1
    12     1     2   ar
    13     2     3   ar
    14     3    30    1
    15    30    31    1
    16    31    32    1
    17    31    33    1
    18     3     4   ar
    19     4     5   ar
    20     5     6    1
    21     6     7   ar
    22     7     8   ar
    23     8     9   ar
    24     9    10   ar
    25    10    12    1
    26    12    13    1
    27    13    14   ar
    28    14    15   ar
    29    15    16   ar
    30    16    17   ar
    31    10    11   ar
    32     5     1   ar
    33    11     6   ar
    34    17    13   ar
    35    23    24    1
@<TRIPOS>MOLECULE
*****
 33 35 0 0 0
SMALL
GASTEIGER

@<TRIPOS>ATOM
      1 C          62.2475   86.1762   11.2082 C.ar    1  UNL1        0.1544
      2 S          62.0918   84.7269   10.8545 S.2     1  UNL1       -0.0714
      3 C          62.8737   83.9205   11.8487 C.ar    1  UNL1        0.0086
      4 C          63.5127   84.8715   12.8168 C.ar    1  UNL1        0.0040
      5 C          63.1257   86.2656   12.4210 C.ar    1  UNL1        0.0252
      6 C          63.5435   87.5276   13.1160 C.ar    1  UNL1        0.0015
      7 C          64.0850   87.4701   14.5136 C.ar    1  UNL1        0.0000
      8 C          64.5028   88.7320   15.2085 C.ar    1  UNL1       -0.0003
      9 C          64.3790   90.0515   14.5058 C.ar    1  UNL1       -0.0024
     10 C          63.8375   90.1090   13.1082 C.ar    1  UNL1        0.0004
     11 C          63.4197   88.8470   12.4133 C.ar    1  UNL1       -0.0023
     12 C          63.7137   91.4284   12.4055 C.3     1  UNL1        0.1343
     13 N          64.9464   92.1777   11.9943 N.ar    1  UNL1       -0.3036
     14 C          65.2519   92.6835   10.6156 C.ar    1  UNL1        0.0983
     15 C          66.5844   93.3712   10.6588 C.ar    1  UNL1        0.1193
     16 N          67.1023   93.2904   12.0643 N.ar    1  UNL1       -0.2223
     17 C          66.0900   92.5528   12.8896 C.ar    1  UNL1        0.1789
     18 S          61.6330   87.3331   10.4774 S.O2    1  UNL1        0.0838
     19 O          60.5537   87.4158   11.5158 O.2     1  UNL1       -0.1493
     20 O          62.7123   87.2503    9.4389 O.2     1  UNL1       -0.1493
     21 C          60.0119   88.2427    8.6623 C.2     1  UNL1        0.4205
     22 O          59.6196   86.8387    8.3089 O.2     1  UNL1       -0.2248
     23 N          61.0185   88.4898    9.7465 N.am    1  UNL1       -0.1502
     24 H          61.2759   89.4114    9.9784 H       1  UNL1        0.1800
     25 O          59.3974   89.3996    7.9314 O.3     1  UNL1       -0.4337
     26 C          59.2540   89.3531    6.4390 C.3     1  UNL1        0.2102
     27 C          59.7967   90.4705    5.5982 C.3     1  UNL1        0.0475
     28 C          57.3811   91.2523    5.0472 C.3     1  UNL1        0.0001
     29 C          58.8629   91.4800    4.9991 C.3     1  UNL1        0.0038
     30 C          62.9953   82.4256   11.8708 C.3     1  UNL1        0.0330
     31 C          62.4822   81.6487   13.0469 C.3     1  UNL1        0.0049
     32 C          62.0432   82.3686   14.2875 C.3     1  UNL1        0.0004
     33 C          62.4080   80.1519   12.9824 C.3     1  UNL1        0.0004
@<TRIPOS>BOND
     1    28    29    1
     2    29    27    1
     3    27    26    1
     4    26    25    1
     5    25    21    1
     6    21    22    2
     7    21    23   am
     8    23    18    1
     9    18    19    2
    10    18    20    2
    11    18     1    1
    12     1     2   ar
    13     2     3   ar
    14     3    30    1
    15    30    31    1
    16    31    32    1
    17    31    33    1
    18     3     4   ar
    19     4     5   ar
    20     5     6    1
    21     6     7   ar
    22     7     8   ar
    23     8     9   ar
    24     9    10   ar
    25    10    12    1
    26    12    13    1
    27    13    14   ar
    28    14    15   ar
    29    15    16   ar
    30    16    17   ar
    31    10    11   ar
    32     5     1   ar
    33    11     6   ar
    34    17    13   ar
    35    23    24    1
@<TRIPOS>MOLECULE
*****
 33 35 0 0 0
SMALL
GASTEIGER

@<TRIPOS>ATOM
      1 C          64.2863   90.4534   13.8084 C.ar    1  UNL1        0.1544
      2 S          65.3583   91.4800   14.0245 S.2     1  UNL1       -0.0714
      3 C          65.3863   92.3805   12.8251 C.ar    1  UNL1        0.0086
      4 C          64.3316   91.9103   11.8678 C.ar    1  UNL1        0.0040
      5 C          63.6517   90.7193   12.4755 C.ar    1  UNL1        0.0252
      6 C          62.5335   89.9324   11.8585 C.ar    1  UNL1        0.0015
      7 C          61.2261   90.6007   11.5521 C.ar    1  UNL1        0.0000
      8 C          60.1081   89.8138   10.9352 C.ar    1  UNL1       -0.0003
      9 C          60.2974   88.3586   10.6247 C.ar    1  UNL1       -0.0024
     10 C          61.6048   87.6902   10.9312 C.ar    1  UNL1        0.0004
     11 C          62.7229   88.4771   11.5481 C.ar    1  UNL1       -0.0023
     12 C          61.7941   86.2350   10.6207 C.3     1  UNL1        0.1343
     13 N          61.8493   85.7733    9.1946 N.ar    1  UNL1       -0.3036
     14 C          60.7289   85.8470    8.2000 C.ar    1  UNL1        0.0983
     15 C          61.2218   85.2761    6.9033 C.ar    1  UNL1        0.1193
     16 N          62.6469   84.8496    7.0966 N.ar    1  UNL1       -0.2223
     17 C          63.0347   85.1569    8.5126 C.ar    1  UNL1        0.1789
     18 S          63.9142   89.3538   14.7584 S.O2    1  UNL1        0.0838
     19 O          65.2617   88.7258   14.5595 O.2     1  UNL1       -0.1493
     20 O          62.5665   89.9819   14.9573 O.2     1  UNL1       -0.1493
     21 C          63.5220   86.8305   15.2370 C.2     1  UNL1        0.4205
     22 O          63.8743   86.5061   13.8155 O.2     1  UNL1       -0.2248
     23 N          63.5420   88.2544   15.7084 N.am    1  UNL1       -0.1502
     24 H          63.3107   88.4673   16.6414 H       1  UNL1        0.1800
     25 O          63.1498   85.7310   16.1871 O.3     1  UNL1       -0.4337
     26 C          63.2569   84.2985   15.7555 C.3     1  UNL1        0.2102
     27 C          62.1683   83.6808   14.9289 C.3     1  UNL1        0.0475
     28 C          61.4988   81.2773   14.2045 C.3     1  UNL1        0.0001
     29 C          62.4437   82.4400   14.1323 C.3     1  UNL1        0.0038
     30 C          66.3074   93.5464   12.6192 C.3     1  UNL1        0.0330
     31 C          66.3997   94.2006   11.2726 C.3     1  UNL1        0.0049
     32 C          66.9158   93.4260   10.0963 C.3     1  UNL1        0.0004
     33 C          65.9760   95.6294   11.1022 C.3     1  UNL1        0.0004
@<TRIPOS>BOND
     1    28    29    1
     2    29    27    1
     3    27    26    1
     4    26    25    1
     5    25    21    1
     6    21    22    2
     7    21    23   am
     8    23    18    1
     9    18    19    2
    10    18    20    2
    11    18     1    1
    12     1     2   ar
    13     2     3   ar
    14     3    30    1
    15    30    31    1
    16    31    32    1
    17    31    33    1
    18     3     4   ar
    19     4     5   ar
    20     5     6    1
    21     6     7   ar
    22     7     8   ar
    23     8     9   ar
    24     9    10   ar
    25    10    12    1
    26    12    13    1
    27    13    14   ar
    28    14    15   ar
    29    15    16   ar
    30    16    17   ar
    31    10    11   ar
    32     5     1   ar
    33    11     6   ar
    34    17    13   ar
    35    23    24    1
@<TRIPOS>MOLECULE
*****
 33 35 0 0 0
SMALL
GASTEIGER

@<TRIPOS>ATOM
      1 C          61.2512   88.5006    9.7105 C.ar    1  UNL1        0.1544
      2 S          60.2789   89.3824    8.9845 S.2     1  UNL1       -0.0714
      3 C          59.6273   88.5660    7.9078 C.ar    1  UNL1        0.0086
      4 C          60.1971   87.1797    7.9685 C.ar    1  UNL1        0.0040
      5 C          61.2006   87.1393    9.0826 C.ar    1  UNL1        0.0252
      6 C          62.0113   85.9469    9.4962 C.ar    1  UNL1        0.0015
      7 C          63.0060   85.3499    8.5453 C.ar    1  UNL1        0.0000
      8 C          63.8166   84.1575    8.9589 C.ar    1  UNL1       -0.0003
      9 C          63.6326   83.5622   10.3234 C.ar    1  UNL1       -0.0024
     10 C          62.6380   84.1593   11.2742 C.ar    1  UNL1        0.0004
     11 C          61.8273   85.3516   10.8606 C.ar    1  UNL1       -0.0023
     12 C          62.4540   83.5639   12.6387 C.3     1  UNL1        0.1343
     13 N          63.0213   84.2568   13.8420 N.ar    1  UNL1       -0.3036
     14 C          64.3126   85.0183   13.8938 C.ar    1  UNL1        0.0983
     15 C          64.4862   85.5420   15.2888 C.ar    1  UNL1        0.1193
     16 N          63.3022   85.1043   16.0990 N.ar    1  UNL1       -0.2223
     17 C          62.3968   84.3100   15.2049 C.ar    1  UNL1        0.1789
     18 S          62.1213   88.9086   10.8622 S.O2    1  UNL1        0.0838
     19 O          63.2513   89.1778    9.9133 O.2     1  UNL1       -0.1493
     20 O          60.9912   88.6395   11.8113 O.2     1  UNL1       -0.1493
     21 C          63.6267   90.6753   12.0296 C.2     1  UNL1        0.4205
     22 O          63.3921   91.6260   10.8933 O.2     1  UNL1       -0.2248
     23 N          62.9913   89.3166   12.0140 N.am    1  UNL1       -0.1502
     24 H          63.1452   88.6926   12.7598 H       1  UNL1        0.1800
     25 O          64.4967   91.0832   13.1815 O.3     1  UNL1       -0.4337
     26 C          63.9041   91.2392   14.5506 C.3     1  UNL1        0.2102
     27 C          63.0494   90.1495   15.1265 C.3     1  UNL1        0.0475
     28 C          63.0538   88.4539   17.0950 C.3     1  UNL1        0.0001
     29 C          63.6862   88.9995   15.8490 C.3     1  UNL1        0.0038
     30 C          58.5886   89.0508    6.9404 C.3     1  UNL1        0.0330
     31 C          58.9226   90.1400    5.9647 C.3     1  UNL1        0.0049
     32 C          57.8359   91.0201    5.4222 C.3     1  UNL1        0.0004
     33 C          60.3434   90.3490    5.5314 C.3     1  UNL1        0.0004
@<TRIPOS>BOND
     1    28    29    1
     2    29    27    1
     3    27    26    1
     4    26    25    1
     5    25    21    1
     6    21    22    2
     7    21    23   am
     8    23    18    1
     9    18    19    2
    10    18    20    2
    11    18     1    1
    12     1     2   ar
    13     2     3   ar
    14     3    30    1
    15    30    31    1
    16    31    32    1
    17    31    33    1
    18     3     4   ar
    19     4     5   ar
    20     5     6    1
    21     6     7   ar
    22     7     8   ar
    23     8     9   ar
    24     9    10   ar
    25    10    12    1
    26    12    13    1
    27    13    14   ar
    28    14    15   ar
    29    15    16   ar
    30    16    17   ar
    31    10    11   ar
    32     5     1   ar
    33    11     6   ar
    34    17    13   ar
    35    23    24    1
@<TRIPOS>MOLECULE
*****
 33 35 0 0 0
SMALL
GASTEIGER

@<TRIPOS>ATOM
      1 C          60.8417   87.8860    9.6758 C.ar    1  UNL1        0.1544
      2 S          59.9070   87.6309    8.5307 S.2     1  UNL1       -0.0714
      3 C          59.6761   88.9327    7.8221 C.ar    1  UNL1        0.0086
      4 C          60.4681   89.9922    8.5293 C.ar    1  UNL1        0.0040
      5 C          61.1884   89.3453    9.6750 C.ar    1  UNL1        0.0252
      6 C          62.0962   90.0365   10.6488 C.ar    1  UNL1        0.0015
      7 C          61.8041   89.9766   12.1188 C.ar    1  UNL1        0.0000
      8 C          62.7119   90.6678   13.0926 C.ar    1  UNL1       -0.0003
      9 C          63.9117   91.4188   12.5963 C.ar    1  UNL1       -0.0024
     10 C          64.2038   91.4787   11.1263 C.ar    1  UNL1        0.0004
     11 C          63.2961   90.7876   10.1525 C.ar    1  UNL1       -0.0023
     12 C          65.4037   92.2297   10.6300 C.3     1  UNL1        0.1343
     13 N          65.7462   93.5675   11.2157 N.ar    1  UNL1       -0.3036
     14 C          65.6200   94.8918   10.5227 C.ar    1  UNL1        0.0983
     15 C          66.0709   95.9587   11.4760 C.ar    1  UNL1        0.1193
     16 N          66.4758   95.2936   12.7581 N.ar    1  UNL1       -0.2223
     17 C          66.2751   93.8158   12.5972 C.ar    1  UNL1        0.1789
     18 S          61.3418   86.8615   10.6507 S.O2    1  UNL1        0.0838
     19 O          60.3081   87.3022   11.6442 O.2     1  UNL1       -0.1493
     20 O          62.3756   86.4207    9.6571 O.2     1  UNL1       -0.1493
     21 C          62.9107   86.2004   12.6132 C.2     1  UNL1        0.4205
     22 O          63.4794   87.5884   12.6262 O.2     1  UNL1       -0.2248
     23 N          61.8419   85.8370   11.6254 N.am    1  UNL1       -0.1502
     24 H          61.4687   84.9260   11.6169 H       1  UNL1        0.1800
     25 O          63.4108   85.1758   13.5880 O.3     1  UNL1       -0.4337
     26 C          63.2146   83.7153   13.3077 C.3     1  UNL1        0.2102
     27 C          64.2900   82.9337   12.6131 C.3     1  UNL1        0.0475
     28 C          64.0005   83.2822   10.0549 C.3     1  UNL1        0.0001
     29 C          64.0430   82.3703   11.2451 C.3     1  UNL1        0.0038
     30 C          58.8060   89.1387    6.6177 C.3     1  UNL1        0.0330
     31 C          59.0141   90.3357    5.7380 C.3     1  UNL1        0.0049
     32 C          60.3924   90.6844    5.2596 C.3     1  UNL1        0.0004
     33 C          57.8439   91.1840    5.3366 C.3     1  UNL1        0.0004
@<TRIPOS>BOND
     1    28    29    1
     2    29    27    1
     3    27    26    1
     4    26    25    1
     5    25    21    1
     6    21    22    2
     7    21    23   am
     8    23    18    1
     9    18    19    2
    10    18    20    2
    11    18     1    1
    12     1     2   ar
    13     2     3   ar
    14     3    30    1
    15    30    31    1
    16    31    32    1
    17    31    33    1
    18     3     4   ar
    19     4     5   ar
    20     5     6    1
    21     6     7   ar
    22     7     8   ar
    23     8     9   ar
    24     9    10   ar
    25    10    12    1
    26    12    13    1
    27    13    14   ar
    28    14    15   ar
    29    15    16   ar
    30    16    17   ar
    31    10    11   ar
    32     5     1   ar
    33    11     6   ar
    34    17    13   ar
    35    23    24    1
@<TRIPOS>MOLECULE
*****
 33 35 0 0 0
SMALL
GASTEIGER

@<TRIPOS>ATOM
      1 C          60.9217   87.7524    9.3381 C.ar    1  UNL1        0.1544
      2 S          60.0288   87.5953    8.1431 S.2     1  UNL1       -0.0714
      3 C          59.6424   88.9653    7.6699 C.ar    1  UNL1        0.0086
      4 C          60.2964   89.9690    8.5725 C.ar    1  UNL1        0.0040
      5 C          61.0871   89.2194    9.6036 C.ar    1  UNL1        0.0252
      6 C          61.9004   89.8297   10.7064 C.ar    1  UNL1        0.0015
      7 C          61.4922   89.6330   12.1363 C.ar    1  UNL1        0.0000
      8 C          62.3055   90.2433   13.2391 C.ar    1  UNL1       -0.0003
      9 C          63.5269   91.0503   12.9119 C.ar    1  UNL1       -0.0024
     10 C          63.9350   91.2470   11.4820 C.ar    1  UNL1        0.0004
     11 C          63.1217   90.6367   10.3792 C.ar    1  UNL1       -0.0023
     12 C          65.1564   92.0539   11.1548 C.3     1  UNL1        0.1343
     13 N          66.0273   92.5772   12.2582 N.ar    1  UNL1       -0.3036
     14 C          66.9506   91.7622   13.1146 C.ar    1  UNL1        0.0983
     15 C          67.6218   92.6887   14.0847 C.ar    1  UNL1        0.1193
     16 N          67.1134   94.0764   13.8279 N.ar    1  UNL1       -0.2223
     17 C          66.1279   94.0075   12.6991 C.ar    1  UNL1        0.1789
     18 S          61.5404   86.6380   10.1289 S.O2    1  UNL1        0.0838
     19 O          62.5725   86.4501    9.0567 O.2     1  UNL1       -0.1493
     20 O          60.5083   86.8258   11.2012 O.2     1  UNL1       -0.1493
     21 C          63.0159   85.8351   12.1109 C.2     1  UNL1        0.4205
     22 O          63.2541   87.2609   12.5112 O.2     1  UNL1       -0.2248
     23 N          62.1591   85.5237   10.9197 N.am    1  UNL1       -0.1502
     24 H          62.0028   84.5879   10.6569 H       1  UNL1        0.1800
     25 O          63.6347   84.7206   12.9017 O.3     1  UNL1       -0.4337
     26 C          62.7992   83.5503   13.3286 C.3     1  UNL1        0.2102
     27 C          62.7218   82.3282   12.4623 C.3     1  UNL1        0.0475
     28 C          61.2345   80.9946   14.1233 C.3     1  UNL1        0.0001
     29 C          62.2805   81.0200   13.0485 C.3     1  UNL1        0.0038
     30 C          58.7573   89.2768    6.4996 C.3     1  UNL1        0.0330
     31 C          59.0386   90.4772    5.6451 C.3     1  UNL1        0.0049
     32 C          57.9141   91.3724    5.2160 C.3     1  UNL1        0.0004
     33 C          60.4444   90.7823    5.2198 C.3     1  UNL1        0.0004
@<TRIPOS>BOND
     1    28    29    1
     2    29    27    1
     3    27    26    1
     4    26    25    1
     5    25    21    1
     6    21    22    2
     7    21    23   am
     8    23    18    1
     9    18    19    2
    10    18    20    2
    11    18     1    1
    12     1     2   ar
    13     2     3   ar
    14     3    30    1
    15    30    31    1
    16    31    32    1
    17    31    33    1
    18     3     4   ar
    19     4     5   ar
    20     5     6    1
    21     6     7   ar
    22     7     8   ar
    23     8     9   ar
    24     9    10   ar
    25    10    12    1
    26    12    13    1
    27    13    14   ar
    28    14    15   ar
    29    15    16   ar
    30    16    17   ar
    31    10    11   ar
    32     5     1   ar
    33    11     6   ar
    34    17    13   ar
    35    23    24    1
