@<TRIPOS>MOLECULE
*****
 29 31 0 0 0
SMALL
GASTEIGER

@<TRIPOS>ATOM
      1 C          63.8545   90.8196   14.6885 C.ar    1  UNL1        0.1357
      2 N          64.7184   91.4713   15.7273 N.ar    1  UNL1       -0.1992
      3 C          65.7453   92.4859   15.3198 C.ar    1  UNL1        0.2148
      4 N          66.6091   93.1376   16.3586 N.pl3   1  UNL1       -0.3274
      5 N          65.9083   92.8489   13.8735 N.ar    1  UNL1       -0.2138
      6 C          65.0445   92.1972   12.8347 C.ar    1  UNL1        0.0898
      7 C          65.2075   92.5601   11.3885 C.ar    1  UNL1        0.0195
      8 C          64.3437   91.9084   10.3497 C.ar    1  UNL1        0.0047
      9 C          63.3168   90.8938   10.7572 C.ar    1  UNL1        0.0371
     10 C          63.1537   90.5309   12.2034 C.ar    1  UNL1        0.1431
     11 C          64.0176   91.1826   13.2422 C.ar    1  UNL1        0.0831
     12 H          66.5021   92.8994   17.3079 H       1  UNL1        0.1452
     13 H          67.2831   93.8035   16.0912 H       1  UNL1        0.1452
     14 N          62.8276   89.8050   15.0960 N.pl3   1  UNL1       -0.3179
     15 H          62.0136   89.6842   14.5557 H       1  UNL1        0.1482
     16 C          63.0410   88.9745   16.3267 C.3     1  UNL1        0.0882
     17 C          63.5354   87.5637   16.2031 C.3     1  UNL1        0.0212
     18 C          64.7348   85.7153   14.8265 C.3     1  UNL1        0.0001
     19 C          64.3179   87.1465   14.9931 C.3     1  UNL1        0.0017
     20 O          62.1268   89.5163   12.6109 O.3     1  UNL1       -0.4704
     21 C          60.7813   89.5032   11.9482 C.3     1  UNL1        0.2350
     22 C          60.5793   88.7351   10.6758 C.ar    1  UNL1        0.0551
     23 C          60.1009   89.4408    9.4416 C.ar    1  UNL1        0.0023
     24 C          59.8990   88.6727    8.1691 C.ar    1  UNL1       -0.0000
     25 C          60.1754   87.1988    8.1308 C.ar    1  UNL1        0.0031
     26 C          60.6538   86.4932    9.3650 C.ar    1  UNL1        0.0367
     27 C          60.8557   87.2613   10.6374 C.ar    1  UNL1        0.1382
     28 O          61.3341   86.5557   11.8716 O.3     1  UNL1       -0.4716
     29 C          62.2162   85.3484   11.7510 C.3     1  UNL1        0.2525
@<TRIPOS>BOND
     1    18    19    1
     2    19    17    1
     3    17    16    1
     4    16    14    1
     5    14     1    1
     6     1     2   ar
     7     2     3   ar
     8     3     4    1
     9     3     5   ar
    10     5     6   ar
    11     6     7   ar
    12     7     8   ar
    13     8     9   ar
    14     9    10   ar
    15    10    20    1
    16    20    21    1
    17    21    22    1
    18    22    23   ar
    19    23    24   ar
    20    24    25   ar
    21    25    26   ar
    22    26    27   ar
    23    27    28    1
    24    28    29    1
    25    10    11   ar
    26    11     1   ar
    27    11     6   ar
    28    27    22   ar
    29    14    15    1
    30     4    12    1
    31     4    13    1
@<TRIPOS>MOLECULE
*****
 29 31 0 0 0
SMALL
GASTEIGER

@<TRIPOS>ATOM
      1 C          64.0479   90.9306   14.6088 C.ar    1  UNL1        0.1357
      2 N          64.9148   91.5753   15.6493 N.ar    1  UNL1       -0.1992
      3 C          65.9203   92.6139   15.2492 C.ar    1  UNL1        0.2148
      4 N          66.7873   93.2587   16.2898 N.pl3   1  UNL1       -0.3274
      5 N          66.0590   93.0078   13.8085 N.ar    1  UNL1       -0.2138
      6 C          65.1921   92.3630   12.7679 C.ar    1  UNL1        0.0898
      7 C          65.3307   92.7569   11.3272 C.ar    1  UNL1        0.0195
      8 C          64.4638   92.1121   10.2867 C.ar    1  UNL1        0.0047
      9 C          63.4582   91.0735   10.6869 C.ar    1  UNL1        0.0371
     10 C          63.3196   90.6797   12.1275 C.ar    1  UNL1        0.1431
     11 C          64.1865   91.3244   13.1681 C.ar    1  UNL1        0.0831
     12 H          66.6963   93.0001   17.2354 H       1  UNL1        0.1452
     13 H          67.4473   93.9403   16.0272 H       1  UNL1        0.1452
     14 N          63.0423   89.8919   15.0090 N.pl3   1  UNL1       -0.3179
     15 H          62.0798   90.0787   14.9202 H       1  UNL1        0.1482
     16 C          63.5032   88.5688   15.5444 C.3     1  UNL1        0.0882
     17 C          64.3356   87.6617   14.6875 C.3     1  UNL1        0.0212
     18 C          64.0582   85.1650   14.0245 C.3     1  UNL1        0.0001
     19 C          64.4532   86.2060   15.0297 C.3     1  UNL1        0.0017
     20 O          62.3140   89.6411   12.5277 O.3     1  UNL1       -0.4704
     21 C          61.2436   89.2229   11.5637 C.3     1  UNL1        0.2350
     22 C          61.4253   87.9891   10.7302 C.ar    1  UNL1        0.0551
     23 C          62.2578   86.8522   11.2447 C.ar    1  UNL1        0.0023
     24 C          62.4394   85.6185   10.4112 C.ar    1  UNL1       -0.0000
     25 C          61.7886   85.5215    9.0632 C.ar    1  UNL1        0.0031
     26 C          60.9561   86.6583    8.5487 C.ar    1  UNL1        0.0367
     27 C          60.7745   87.8921    9.3823 C.ar    1  UNL1        0.1382
     28 O          59.9420   89.0289    8.8678 O.3     1  UNL1       -0.4716
     29 C          59.5388   89.0697    7.4236 C.3     1  UNL1        0.2525
@<TRIPOS>BOND
     1    18    19    1
     2    19    17    1
     3    17    16    1
     4    16    14    1
     5    14     1    1
     6     1     2   ar
     7     2     3   ar
     8     3     4    1
     9     3     5   ar
    10     5     6   ar
    11     6     7   ar
    12     7     8   ar
    13     8     9   ar
    14     9    10   ar
    15    10    20    1
    16    20    21    1
    17    21    22    1
    18    22    23   ar
    19    23    24   ar
    20    24    25   ar
    21    25    26   ar
    22    26    27   ar
    23    27    28    1
    24    28    29    1
    25    10    11   ar
    26    11     1   ar
    27    11     6   ar
    28    27    22   ar
    29    14    15    1
    30     4    12    1
    31     4    13    1
@<TRIPOS>MOLECULE
*****
 29 31 0 0 0
SMALL
GASTEIGER

@<TRIPOS>ATOM
      1 C          64.0176   89.0246   13.8060 C.ar    1  UNL1        0.1357
      2 N          64.8257   89.8393   14.7721 N.ar    1  UNL1       -0.1992
      3 C          65.1835   91.2579   14.4410 C.ar    1  UNL1        0.2148
      4 N          65.9916   92.0726   15.4071 N.pl3   1  UNL1       -0.3274
      5 N          64.7332   91.8618   13.1440 N.ar    1  UNL1       -0.2138
      6 C          63.9250   91.0471   12.1778 C.ar    1  UNL1        0.0898
      7 C          63.4747   91.6511   10.8808 C.ar    1  UNL1        0.0195
      8 C          62.6666   90.8364    9.9148 C.ar    1  UNL1        0.0047
      9 C          62.3088   89.4178   10.2458 C.ar    1  UNL1        0.0371
     10 C          62.7591   88.8139   11.5429 C.ar    1  UNL1        0.1431
     11 C          63.5672   89.6285   12.5089 C.ar    1  UNL1        0.0831
     12 H          66.2872   91.6762   16.2585 H       1  UNL1        0.1452
     13 H          66.2265   93.0036   15.1899 H       1  UNL1        0.1452
     14 N          63.6598   87.6060   14.1371 N.pl3   1  UNL1       -0.3179
     15 H          62.7541   87.2699   13.9480 H       1  UNL1        0.1482
     16 C          64.6821   86.6997   14.7563 C.3     1  UNL1        0.0882
     17 C          64.3910   85.2365   14.9120 C.3     1  UNL1        0.0212
     18 C          63.2343   83.8320   13.0573 C.3     1  UNL1        0.0001
     19 C          64.4842   84.3229   13.7259 C.3     1  UNL1        0.0017
     20 O          62.4014   87.3953   11.8739 O.3     1  UNL1       -0.4704
     21 C          61.3262   86.6926   11.0992 C.3     1  UNL1        0.2350
     22 C          61.6431   86.0706    9.7715 C.ar    1  UNL1        0.0551
     23 C          62.8726   85.2261    9.6133 C.ar    1  UNL1        0.0023
     24 C          63.1895   84.6041    8.2856 C.ar    1  UNL1       -0.0000
     25 C          62.2768   84.8267    7.1161 C.ar    1  UNL1        0.0031
     26 C          61.0473   85.6712    7.2744 C.ar    1  UNL1        0.0367
     27 C          60.7305   86.2932    8.6021 C.ar    1  UNL1        0.1382
     28 O          59.5010   87.1377    8.7604 O.3     1  UNL1       -0.4716
     29 C          59.3461   88.3949    7.9569 C.3     1  UNL1        0.2525
@<TRIPOS>BOND
     1    18    19    1
     2    19    17    1
     3    17    16    1
     4    16    14    1
     5    14     1    1
     6     1     2   ar
     7     2     3   ar
     8     3     4    1
     9     3     5   ar
    10     5     6   ar
    11     6     7   ar
    12     7     8   ar
    13     8     9   ar
    14     9    10   ar
    15    10    20    1
    16    20    21    1
    17    21    22    1
    18    22    23   ar
    19    23    24   ar
    20    24    25   ar
    21    25    26   ar
    22    26    27   ar
    23    27    28    1
    24    28    29    1
    25    10    11   ar
    26    11     1   ar
    27    11     6   ar
    28    27    22   ar
    29    14    15    1
    30     4    12    1
    31     4    13    1
@<TRIPOS>MOLECULE
*****
 29 31 0 0 0
SMALL
GASTEIGER

@<TRIPOS>ATOM
      1 C          63.9900   88.8960   13.6605 C.ar    1  UNL1        0.1357
      2 N          64.8781   89.7704   14.4952 N.ar    1  UNL1       -0.1992
      3 C          65.1618   91.1792   14.0653 C.ar    1  UNL1        0.2148
      4 N          66.0499   92.0536   14.9001 N.pl3   1  UNL1       -0.3274
      5 N          64.5574   91.7136   12.8008 N.ar    1  UNL1       -0.2138
      6 C          63.6693   90.8392   11.9660 C.ar    1  UNL1        0.0898
      7 C          63.0649   91.3737   10.7015 C.ar    1  UNL1        0.0195
      8 C          62.1769   90.4993    9.8668 C.ar    1  UNL1        0.0047
      9 C          61.8932   89.0904   10.2966 C.ar    1  UNL1        0.0371
     10 C          62.4976   88.5560   11.5612 C.ar    1  UNL1        0.1431
     11 C          63.3856   89.4304   12.3959 C.ar    1  UNL1        0.0831
     12 H          66.4465   91.7028   15.7301 H       1  UNL1        0.1452
     13 H          66.2361   92.9783   14.6180 H       1  UNL1        0.1452
     14 N          63.7064   87.4872   14.0903 N.pl3   1  UNL1       -0.3179
     15 H          62.9508   86.9948   13.6955 H       1  UNL1        0.1482
     16 C          64.5739   86.8286   15.1216 C.3     1  UNL1        0.0882
     17 C          63.9480   86.0945   16.2702 C.3     1  UNL1        0.0212
     18 C          62.9862   88.2805   17.2932 C.3     1  UNL1        0.0001
     19 C          62.9491   86.7879   17.1485 C.3     1  UNL1        0.0017
     20 O          62.2139   87.1472   11.9910 O.3     1  UNL1       -0.4704
     21 C          62.0123   86.0751   10.9615 C.3     1  UNL1        0.2350
     22 C          62.7838   84.7920   11.0538 C.ar    1  UNL1        0.0551
     23 C          63.4366   84.2197    9.8305 C.ar    1  UNL1        0.0023
     24 C          64.2081   82.9366    9.9228 C.ar    1  UNL1       -0.0000
     25 C          64.3267   82.2259   11.2384 C.ar    1  UNL1        0.0031
     26 C          63.6739   82.7982   12.4616 C.ar    1  UNL1        0.0367
     27 C          62.9025   84.0813   12.3693 C.ar    1  UNL1        0.1382
     28 O          62.2497   84.6536   13.5925 O.3     1  UNL1       -0.4716
     29 C          62.1057   83.8149   14.8278 C.3     1  UNL1        0.2525
@<TRIPOS>BOND
     1    18    19    1
     2    19    17    1
     3    17    16    1
     4    16    14    1
     5    14     1    1
     6     1     2   ar
     7     2     3   ar
     8     3     4    1
     9     3     5   ar
    10     5     6   ar
    11     6     7   ar
    12     7     8   ar
    13     8     9   ar
    14     9    10   ar
    15    10    20    1
    16    20    21    1
    17    21    22    1
    18    22    23   ar
    19    23    24   ar
    20    24    25   ar
    21    25    26   ar
    22    26    27   ar
    23    27    28    1
    24    28    29    1
    25    10    11   ar
    26    11     1   ar
    27    11     6   ar
    28    27    22   ar
    29    14    15    1
    30     4    12    1
    31     4    13    1
@<TRIPOS>MOLECULE
*****
 29 31 0 0 0
SMALL
GASTEIGER

@<TRIPOS>ATOM
      1 C          64.6116   91.9684   11.6103 C.ar    1  UNL1        0.1357
      2 N          64.9775   92.8057   10.4208 N.ar    1  UNL1       -0.1992
      3 C          65.9872   93.9062   10.5603 C.ar    1  UNL1        0.2148
      4 N          66.3531   94.7435    9.3707 N.pl3   1  UNL1       -0.3274
      5 N          66.6309   94.1694   11.8893 N.ar    1  UNL1       -0.2138
      6 C          66.2650   93.3321   13.0789 C.ar    1  UNL1        0.0898
      7 C          66.9088   93.5953   14.4079 C.ar    1  UNL1        0.0195
      8 C          66.5428   92.7579   15.5974 C.ar    1  UNL1        0.0047
      9 C          65.5332   91.6574   15.4579 C.ar    1  UNL1        0.0371
     10 C          64.8894   91.3942   14.1289 C.ar    1  UNL1        0.1431
     11 C          65.2554   92.2316   12.9394 C.ar    1  UNL1        0.0831
     12 H          65.9306   94.5708    8.4984 H       1  UNL1        0.1452
     13 H          67.0158   95.4658    9.4623 H       1  UNL1        0.1452
     14 N          63.6019   90.8679   11.4708 N.pl3   1  UNL1       -0.3179
     15 H          63.4728   90.2226   12.2031 H       1  UNL1        0.1482
     16 C          62.7890   90.7505   10.2157 C.3     1  UNL1        0.0882
     17 C          61.7636   89.6636   10.0852 C.3     1  UNL1        0.0212
     18 C          59.6822   90.3479   11.4815 C.3     1  UNL1        0.0001
     19 C          60.3031   89.9972   10.1619 C.3     1  UNL1        0.0017
     20 O          63.8798   90.2937   13.9894 O.3     1  UNL1       -0.4704
     21 C          64.3089   88.8619   14.1143 C.3     1  UNL1        0.2350
     22 C          63.8533   88.0417   15.2847 C.ar    1  UNL1        0.0551
     23 C          63.2552   88.7145   16.4846 C.ar    1  UNL1        0.0023
     24 C          62.7995   87.8943   17.6549 C.ar    1  UNL1       -0.0000
     25 C          62.9420   86.4013   17.6253 C.ar    1  UNL1        0.0031
     26 C          63.5401   85.7286   16.4255 C.ar    1  UNL1        0.0367
     27 C          63.9958   86.5488   15.2551 C.ar    1  UNL1        0.1382
     28 O          64.5939   85.8761   14.0553 O.3     1  UNL1       -0.4716
     29 C          64.0666   84.5478   13.5996 C.3     1  UNL1        0.2525
@<TRIPOS>BOND
     1    18    19    1
     2    19    17    1
     3    17    16    1
     4    16    14    1
     5    14     1    1
     6     1     2   ar
     7     2     3   ar
     8     3     4    1
     9     3     5   ar
    10     5     6   ar
    11     6     7   ar
    12     7     8   ar
    13     8     9   ar
    14     9    10   ar
    15    10    20    1
    16    20    21    1
    17    21    22    1
    18    22    23   ar
    19    23    24   ar
    20    24    25   ar
    21    25    26   ar
    22    26    27   ar
    23    27    28    1
    24    28    29    1
    25    10    11   ar
    26    11     1   ar
    27    11     6   ar
    28    27    22   ar
    29    14    15    1
    30     4    12    1
    31     4    13    1
@<TRIPOS>MOLECULE
*****
 29 31 0 0 0
SMALL
GASTEIGER

@<TRIPOS>ATOM
      1 C          62.6881   87.9448   11.1623 C.ar    1  UNL1        0.1357
      2 N          62.4789   89.0894   10.2156 N.ar    1  UNL1       -0.1992
      3 C          62.9129   90.4720   10.6031 C.ar    1  UNL1        0.2148
      4 N          62.7037   91.6166    9.6564 N.pl3   1  UNL1       -0.3274
      5 N          63.5559   90.7100   11.9371 N.ar    1  UNL1       -0.2138
      6 C          63.7651   89.5654   12.8839 C.ar    1  UNL1        0.0898
      7 C          64.4081   89.8034   14.2179 C.ar    1  UNL1        0.0195
      8 C          64.6173   88.6588   15.1645 C.ar    1  UNL1        0.0047
      9 C          64.1833   87.2762   14.7771 C.ar    1  UNL1        0.0371
     10 C          63.5403   87.0382   13.4430 C.ar    1  UNL1        0.1431
     11 C          63.3312   88.1828   12.4964 C.ar    1  UNL1        0.0831
     12 H          62.2816   91.4603    8.7808 H       1  UNL1        0.1452
     13 H          62.9885   92.5240    9.9106 H       1  UNL1        0.1452
     14 N          62.2541   86.5622   10.7748 N.pl3   1  UNL1       -0.3179
     15 H          62.8119   85.7865   11.0124 H       1  UNL1        0.1482
     16 C          60.9704   86.3614   10.0254 C.3     1  UNL1        0.0882
     17 C          60.9920   86.1749    8.5372 C.3     1  UNL1        0.0212
     18 C          59.1351   87.7473    7.6264 C.3     1  UNL1        0.0001
     19 C          59.7394   86.3789    7.7375 C.3     1  UNL1        0.0017
     20 O          63.1064   85.6556   13.0556 O.3     1  UNL1       -0.4704
     21 C          63.8547   84.4624   13.5716 C.3     1  UNL1        0.2350
     22 C          63.2498   83.0940   13.4650 C.ar    1  UNL1        0.0551
     23 C          62.2418   82.6386   14.4782 C.ar    1  UNL1        0.0023
     24 C          61.6368   81.2701   14.3716 C.ar    1  UNL1       -0.0000
     25 C          62.0398   80.3571   13.2517 C.ar    1  UNL1        0.0031
     26 C          63.0478   80.8125   12.2386 C.ar    1  UNL1        0.0367
     27 C          63.6527   82.1810   12.3452 C.ar    1  UNL1        0.1382
     28 O          64.6607   82.6364   11.3320 O.3     1  UNL1       -0.4716
     29 C          64.2029   83.2481   10.0411 C.3     1  UNL1        0.2525
@<TRIPOS>BOND
     1    18    19    1
     2    19    17    1
     3    17    16    1
     4    16    14    1
     5    14     1    1
     6     1     2   ar
     7     2     3   ar
     8     3     4    1
     9     3     5   ar
    10     5     6   ar
    11     6     7   ar
    12     7     8   ar
    13     8     9   ar
    14     9    10   ar
    15    10    20    1
    16    20    21    1
    17    21    22    1
    18    22    23   ar
    19    23    24   ar
    20    24    25   ar
    21    25    26   ar
    22    26    27   ar
    23    27    28    1
    24    28    29    1
    25    10    11   ar
    26    11     1   ar
    27    11     6   ar
    28    27    22   ar
    29    14    15    1
    30     4    12    1
    31     4    13    1
@<TRIPOS>MOLECULE
*****
 29 31 0 0 0
SMALL
GASTEIGER

@<TRIPOS>ATOM
      1 C          61.8652   87.9104   11.5279 C.ar    1  UNL1        0.1357
      2 N          61.2072   89.1850   11.9664 N.ar    1  UNL1       -0.1992
      3 C          60.1448   89.8125   11.1135 C.ar    1  UNL1        0.2148
      4 N          59.4867   91.0872   11.5520 N.pl3   1  UNL1       -0.3274
      5 N          59.7404   89.1655    9.8221 N.ar    1  UNL1       -0.2138
      6 C          60.3985   87.8908    9.3835 C.ar    1  UNL1        0.0898
      7 C          59.9941   87.2438    8.0921 C.ar    1  UNL1        0.0195
      8 C          60.6522   85.9692    7.6536 C.ar    1  UNL1        0.0047
      9 C          61.7146   85.3416    8.5065 C.ar    1  UNL1        0.0371
     10 C          62.1189   85.9887    9.7979 C.ar    1  UNL1        0.1431
     11 C          61.4609   87.2633   10.2364 C.ar    1  UNL1        0.0831
     12 H          59.7521   91.5119   12.3996 H       1  UNL1        0.1452
     13 H          58.7894   91.4991   10.9922 H       1  UNL1        0.1452
     14 N          62.9276   87.2828   12.3808 N.pl3   1  UNL1       -0.3179
     15 H          63.0237   86.3033   12.4061 H       1  UNL1        0.1482
     16 C          63.8436   88.1476   13.1951 C.3     1  UNL1        0.0882
     17 C          64.2438   87.7233   14.5771 C.3     1  UNL1        0.0212
     18 C          63.8711   85.6111   16.0434 C.3     1  UNL1        0.0001
     19 C          64.5207   86.2778   14.8671 C.3     1  UNL1        0.0017
     20 O          63.1813   85.3611   10.6509 O.3     1  UNL1       -0.4704
     21 C          63.4330   83.8846   10.5700 C.3     1  UNL1        0.2350
     22 C          63.0482   82.9944   11.7143 C.ar    1  UNL1        0.0551
     23 C          62.7504   83.5882   13.0592 C.ar    1  UNL1        0.0023
     24 C          62.3656   82.6980   14.2036 C.ar    1  UNL1       -0.0000
     25 C          62.2786   81.2140   14.0030 C.ar    1  UNL1        0.0031
     26 C          62.5765   80.6203   12.6581 C.ar    1  UNL1        0.0367
     27 C          62.9613   81.5105   11.5138 C.ar    1  UNL1        0.1382
     28 O          63.2591   80.9167   10.1689 O.3     1  UNL1       -0.4716
     29 C          62.8669   79.4998    9.8711 C.3     1  UNL1        0.2525
@<TRIPOS>BOND
     1    18    19    1
     2    19    17    1
     3    17    16    1
     4    16    14    1
     5    14     1    1
     6     1     2   ar
     7     2     3   ar
     8     3     4    1
     9     3     5   ar
    10     5     6   ar
    11     6     7   ar
    12     7     8   ar
    13     8     9   ar
    14     9    10   ar
    15    10    20    1
    16    20    21    1
    17    21    22    1
    18    22    23   ar
    19    23    24   ar
    20    24    25   ar
    21    25    26   ar
    22    26    27   ar
    23    27    28    1
    24    28    29    1
    25    10    11   ar
    26    11     1   ar
    27    11     6   ar
    28    27    22   ar
    29    14    15    1
    30     4    12    1
    31     4    13    1
@<TRIPOS>MOLECULE
*****
 29 31 0 0 0
SMALL
GASTEIGER

@<TRIPOS>ATOM
      1 C          63.2910   88.7460   12.3256 C.ar    1  UNL1        0.1357
      2 N          63.8694   90.1299   12.3300 N.ar    1  UNL1       -0.1992
      3 C          63.4942   91.1031   11.2521 C.ar    1  UNL1        0.2148
      4 N          64.0727   92.4871   11.2566 N.pl3   1  UNL1       -0.3274
      5 N          62.5405   90.6924   10.1696 N.ar    1  UNL1       -0.2138
      6 C          61.9620   89.3084   10.1651 C.ar    1  UNL1        0.0898
      7 C          61.0082   88.8977    9.0827 C.ar    1  UNL1        0.0195
      8 C          60.4298   87.5138    9.0782 C.ar    1  UNL1        0.0047
      9 C          60.8050   86.5406   10.1562 C.ar    1  UNL1        0.0371
     10 C          61.7587   86.9513   11.2387 C.ar    1  UNL1        0.1431
     11 C          62.3372   88.3352   11.2431 C.ar    1  UNL1        0.0831
     12 H          64.6987   92.7567   11.9670 H       1  UNL1        0.1452
     13 H          63.8264   93.1259   10.5491 H       1  UNL1        0.1452
     14 N          63.6662   87.7728   13.4036 N.pl3   1  UNL1       -0.3179
     15 H          63.5075   86.8098   13.2744 H       1  UNL1        0.1482
     16 C          64.2833   88.2668   14.6784 C.3     1  UNL1        0.0882
     17 C          63.6423   89.3923   15.4350 C.3     1  UNL1        0.0212
     18 C          62.8938   87.7789   17.3289 C.3     1  UNL1        0.0001
     19 C          63.1531   89.1716   16.8357 C.3     1  UNL1        0.0017
     20 O          62.1340   85.9781   12.3166 O.3     1  UNL1       -0.4704
     21 C          63.0976   84.8670   12.0218 C.3     1  UNL1        0.2350
     22 C          62.8008   83.4730   12.4892 C.ar    1  UNL1        0.0551
     23 C          62.9637   82.3159   11.5485 C.ar    1  UNL1        0.0023
     24 C          62.6668   80.9218   12.0159 C.ar    1  UNL1       -0.0000
     25 C          62.2071   80.6848   13.4239 C.ar    1  UNL1        0.0031
     26 C          62.0442   81.8418   14.3645 C.ar    1  UNL1        0.0367
     27 C          62.3411   83.2359   13.8971 C.ar    1  UNL1        0.1382
     28 O          62.1782   84.3929   14.8377 O.3     1  UNL1       -0.4716
     29 C          63.3242   84.8209   15.7058 C.3     1  UNL1        0.2525
@<TRIPOS>BOND
     1    18    19    1
     2    19    17    1
     3    17    16    1
     4    16    14    1
     5    14     1    1
     6     1     2   ar
     7     2     3   ar
     8     3     4    1
     9     3     5   ar
    10     5     6   ar
    11     6     7   ar
    12     7     8   ar
    13     8     9   ar
    14     9    10   ar
    15    10    20    1
    16    20    21    1
    17    21    22    1
    18    22    23   ar
    19    23    24   ar
    20    24    25   ar
    21    25    26   ar
    22    26    27   ar
    23    27    28    1
    24    28    29    1
    25    10    11   ar
    26    11     1   ar
    27    11     6   ar
    28    27    22   ar
    29    14    15    1
    30     4    12    1
    31     4    13    1
@<TRIPOS>MOLECULE
*****
 29 31 0 0 0
SMALL
GASTEIGER

@<TRIPOS>ATOM
      1 C          61.4896   86.6281   10.5079 C.ar    1  UNL1        0.1357
      2 N          60.5230   86.2797    9.4151 N.ar    1  UNL1       -0.1992
      3 C          59.9444   87.3619    8.5524 C.ar    1  UNL1        0.2148
      4 N          58.9777   87.0134    7.4596 N.pl3   1  UNL1       -0.3274
      5 N          60.3324   88.7924    8.7825 N.ar    1  UNL1       -0.2138
      6 C          61.2991   89.1408    9.8753 C.ar    1  UNL1        0.0898
      7 C          61.6872   90.5714   10.1054 C.ar    1  UNL1        0.0195
      8 C          62.6538   90.9197   11.1982 C.ar    1  UNL1        0.0047
      9 C          63.2324   89.8376   12.0609 C.ar    1  UNL1        0.0371
     10 C          62.8444   88.4071   11.8308 C.ar    1  UNL1        0.1431
     11 C          61.8777   88.0587   10.7380 C.ar    1  UNL1        0.0831
     12 H          58.7230   86.0745    7.3086 H       1  UNL1        0.1452
     13 H          58.5979   87.7237    6.8934 H       1  UNL1        0.1452
     14 N          62.0682   85.5460   11.3705 N.pl3   1  UNL1       -0.3179
     15 H          61.9194   85.5599   12.3436 H       1  UNL1        0.1482
     16 C          62.8734   84.4427   10.7506 C.3     1  UNL1        0.0882
     17 C          63.4826   83.3807   11.6172 C.3     1  UNL1        0.0212
     18 C          62.4630   81.2446   12.6885 C.3     1  UNL1        0.0001
     19 C          63.0239   81.9578   11.4941 C.3     1  UNL1        0.0017
     20 O          63.4229   87.3249   12.6935 O.3     1  UNL1       -0.4704
     21 C          64.2551   87.6832   13.8889 C.3     1  UNL1        0.2350
     22 C          63.7700   87.3482   15.2681 C.ar    1  UNL1        0.0551
     23 C          63.3995   88.4465   16.2203 C.ar    1  UNL1        0.0023
     24 C          62.9144   88.1115   17.5996 C.ar    1  UNL1       -0.0000
     25 C          62.7997   86.6781   18.0267 C.ar    1  UNL1        0.0031
     26 C          63.1701   85.5798   17.0745 C.ar    1  UNL1        0.0367
     27 C          63.6552   85.9149   15.6953 C.ar    1  UNL1        0.1382
     28 O          64.0256   84.8167   14.7431 O.3     1  UNL1       -0.4716
     29 C          64.1131   83.4003   15.2293 C.3     1  UNL1        0.2525
@<TRIPOS>BOND
     1    18    19    1
     2    19    17    1
     3    17    16    1
     4    16    14    1
     5    14     1    1
     6     1     2   ar
     7     2     3   ar
     8     3     4    1
     9     3     5   ar
    10     5     6   ar
    11     6     7   ar
    12     7     8   ar
    13     8     9   ar
    14     9    10   ar
    15    10    20    1
    16    20    21    1
    17    21    22    1
    18    22    23   ar
    19    23    24   ar
    20    24    25   ar
    21    25    26   ar
    22    26    27   ar
    23    27    28    1
    24    28    29    1
    25    10    11   ar
    26    11     1   ar
    27    11     6   ar
    28    27    22   ar
    29    14    15    1
    30     4    12    1
    31     4    13    1
