@<TRIPOS>MOLECULE
*****
 42 45 0 0 0
SMALL
GASTEIGER

@<TRIPOS>ATOM
      1 C          64.1612   85.3187   13.6747 C.3     1  UNL1        0.1484
      2 O          65.2162   84.2542   13.7387 O.3     1  UNL1       -0.3810
      3 H          66.0568   84.6486   14.0194 H       1  UNL1        0.2105
      4 C          64.5048   86.7370   14.0218 C.3     1  UNL1        0.1245
      5 N          64.0534   87.3198   15.3282 N.am    1  UNL1       -0.2735
      6 C          63.7771   88.7899   15.4380 C.2     1  UNL1        0.2492
      7 O          63.3257   89.3727   16.7444 O.2     1  UNL1       -0.2699
      8 C          63.9521   89.6774   14.2414 C.ar    1  UNL1        0.0567
      9 C          63.1199   89.4538   13.0136 C.ar    1  UNL1        0.0063
     10 C          63.2949   90.3412   11.8171 C.ar    1  UNL1        0.0225
     11 C          64.3021   91.4524   11.8483 C.ar    1  UNL1        0.1202
     12 N          64.6941   92.4807   10.8290 N.ar    1  UNL1       -0.1946
     13 C          65.7685   93.3399   11.4268 C.ar    1  UNL1        0.2925
     14 O          66.0405   92.8426   12.8156 O.2     1  UNL1       -0.4237
     15 C          65.1343   91.6760   13.0761 C.ar    1  UNL1        0.1662
     16 C          64.9592   90.7886   14.2726 C.ar    1  UNL1        0.0437
     17 N          66.4511   94.4938   10.7540 N.pl3   1  UNL1       -0.2601
     18 C          67.4151   94.2444    9.6322 C.3     1  UNL1        0.1167
     19 C          66.1696   95.8971   11.2031 C.3     1  UNL1        0.1167
     20 C          63.8784   86.4323   16.5248 C.3     1  UNL1        0.0937
     21 C          62.6260   86.8895   18.7547 C.3     1  UNL1        0.0018
     22 C          62.6027   86.4781   17.3124 C.3     1  UNL1        0.0199
     23 C          61.3035   86.1125   16.6576 C.3     1  UNL1        0.0018
     24 C          62.7627   84.9649   13.2636 C.3     1  UNL1        0.1075
     25 N          62.0782   85.7474   12.1822 N.am    1  UNL1       -0.2695
     26 C          62.4599   85.5358   10.7471 C.2     1  UNL1        0.4020
     27 O          63.5260   84.5417   10.3933 O.2     1  UNL1       -0.2264
     28 H          61.3785   86.3998   12.4145 H       1  UNL1        0.1528
     29 O          61.7754   86.3183    9.6658 O.3     1  UNL1       -0.4291
     30 C          60.3729   86.8098    9.8689 C.3     1  UNL1        0.2447
     31 C          60.1307   88.2154   10.3337 C.ar    1  UNL1        0.0714
     32 C          60.3157   89.4588    9.5153 C.ar    1  UNL1        0.1053
     33 N          59.9603   90.6361   10.3741 N.ar    1  UNL1       -0.2350
     34 C          59.5557   90.1203   11.7233 C.ar    1  UNL1        0.1343
     35 S          59.6610   88.6242   11.6983 S.2     1  UNL1       -0.0652
     36 C          62.0488   83.8286   13.9337 C.3     1  UNL1        0.0485
     37 C          62.2228   82.4287   13.4240 C.ar    1  UNL1       -0.0204
     38 C          62.8641   82.1908   12.0890 C.ar    1  UNL1       -0.0042
     39 C          63.0381   80.7907   11.5794 C.ar    1  UNL1       -0.0003
     40 C          62.5708   79.6287   12.4047 C.ar    1  UNL1       -0.0000
     41 C          61.9295   79.8665   13.7397 C.ar    1  UNL1       -0.0003
     42 C          61.7555   81.2665   14.2493 C.ar    1  UNL1       -0.0042
@<TRIPOS>BOND
     1    21    22    1
     2    22    23    1
     3    22    20    1
     4    20     5    1
     5     5     4    1
     6     4     1    1
     7     1     2    1
     8     1    24    1
     9    24    36    1
    10    36    37    1
    11    37    38   ar
    12    38    39   ar
    13    39    40   ar
    14    40    41   ar
    15    41    42   ar
    16    24    25    1
    17    25    26   am
    18    26    27    2
    19    26    29    1
    20    29    30    1
    21    30    31    1
    22    31    32   ar
    23    32    33   ar
    24    33    34   ar
    25    34    35   ar
    26     5     6   am
    27     6     7    2
    28     6     8    1
    29     8     9   ar
    30     9    10   ar
    31    10    11   ar
    32    11    12   ar
    33    12    13   ar
    34    13    17    1
    35    17    18    1
    36    17    19    1
    37    13    14   ar
    38    14    15   ar
    39    15    16   ar
    40    42    37   ar
    41    35    31   ar
    42    16     8   ar
    43    15    11   ar
    44     2     3    1
    45    25    28    1
@<TRIPOS>MOLECULE
*****
 42 45 0 0 0
SMALL
GASTEIGER

@<TRIPOS>ATOM
      1 C          63.4833   87.7442   13.0017 C.3     1  UNL1        0.1484
      2 O          63.1549   88.8395   12.0309 O.3     1  UNL1       -0.3810
      3 H          63.5024   89.6817   12.3640 H       1  UNL1        0.2105
      4 C          64.2416   88.0574   14.2575 C.3     1  UNL1        0.1245
      5 N          63.5792   88.8272   15.3613 N.am    1  UNL1       -0.2735
      6 C          63.8957   90.2803   15.5570 C.2     1  UNL1        0.2492
      7 O          63.2333   91.0502   16.6609 O.2     1  UNL1       -0.2699
      8 C          64.8747   90.9636   14.6488 C.ar    1  UNL1        0.0567
      9 C          66.3367   90.9609   14.9841 C.ar    1  UNL1        0.0063
     10 C          67.3157   91.6442   14.0759 C.ar    1  UNL1        0.0225
     11 C          66.8326   92.3301   12.8325 C.ar    1  UNL1        0.1202
     12 N          67.5567   93.0811   11.7546 N.ar    1  UNL1       -0.1946
     13 C          66.5422   93.5479   10.7533 C.ar    1  UNL1        0.2925
     14 O          65.1911   93.0854   11.2122 O.2     1  UNL1       -0.4237
     15 C          65.3705   92.3328   12.4972 C.ar    1  UNL1        0.1662
     16 C          64.3916   91.6495   13.4054 C.ar    1  UNL1        0.0437
     17 N          66.8284   94.3384    9.5110 N.pl3   1  UNL1       -0.2601
     18 C          66.1818   95.6766    9.3079 C.3     1  UNL1        0.1167
     19 C          67.7613   93.7908    8.4718 C.3     1  UNL1        0.1167
     20 C          62.6001   88.1440   16.2695 C.3     1  UNL1        0.0937
     21 C          62.6961   86.9064   18.5519 C.3     1  UNL1        0.0018
     22 C          63.0352   86.9674   17.0920 C.3     1  UNL1        0.0199
     23 C          63.8093   85.8518   16.4546 C.3     1  UNL1        0.0018
     24 C          63.0533   86.3357   12.7167 C.3     1  UNL1        0.1075
     25 N          61.8094   86.0781   11.9190 N.am    1  UNL1       -0.2695
     26 C          61.8175   86.2757   10.4321 C.2     1  UNL1        0.4020
     27 O          63.0696   86.7310    9.7429 O.2     1  UNL1       -0.2264
     28 H          60.9876   85.7793   12.3714 H       1  UNL1        0.1528
     29 O          60.5736   86.0181    9.6345 O.3     1  UNL1       -0.4291
     30 C          59.6328   87.1453    9.3273 C.3     1  UNL1        0.2447
     31 C          59.7695   88.4539   10.0478 C.ar    1  UNL1        0.0714
     32 C          60.3296   89.7217    9.4744 C.ar    1  UNL1        0.1053
     33 N          60.2764   90.7757   10.5403 N.ar    1  UNL1       -0.2350
     34 C          59.6834   90.1592   11.7726 C.ar    1  UNL1        0.1343
     35 S          59.3701   88.7242   11.4681 S.2     1  UNL1       -0.0652
     36 C          63.8673   85.1848   13.2293 C.3     1  UNL1        0.0485
     37 C          63.3250   83.7885   13.1501 C.ar    1  UNL1       -0.0204
     38 C          63.5676   82.9581   11.9248 C.ar    1  UNL1       -0.0042
     39 C          63.0253   81.5618   11.8456 C.ar    1  UNL1       -0.0003
     40 C          62.2404   80.9959   12.9918 C.ar    1  UNL1       -0.0000
     41 C          61.9978   81.8264   14.2171 C.ar    1  UNL1       -0.0003
     42 C          62.5401   83.2227   14.2963 C.ar    1  UNL1       -0.0042
@<TRIPOS>BOND
     1    21    22    1
     2    22    23    1
     3    22    20    1
     4    20     5    1
     5     5     4    1
     6     4     1    1
     7     1     2    1
     8     1    24    1
     9    24    36    1
    10    36    37    1
    11    37    38   ar
    12    38    39   ar
    13    39    40   ar
    14    40    41   ar
    15    41    42   ar
    16    24    25    1
    17    25    26   am
    18    26    27    2
    19    26    29    1
    20    29    30    1
    21    30    31    1
    22    31    32   ar
    23    32    33   ar
    24    33    34   ar
    25    34    35   ar
    26     5     6   am
    27     6     7    2
    28     6     8    1
    29     8     9   ar
    30     9    10   ar
    31    10    11   ar
    32    11    12   ar
    33    12    13   ar
    34    13    17    1
    35    17    18    1
    36    17    19    1
    37    13    14   ar
    38    14    15   ar
    39    15    16   ar
    40    42    37   ar
    41    35    31   ar
    42    16     8   ar
    43    15    11   ar
    44     2     3    1
    45    25    28    1
@<TRIPOS>MOLECULE
*****
 42 45 0 0 0
SMALL
GASTEIGER

@<TRIPOS>ATOM
      1 C          62.7053   89.7297   12.9375 C.3     1  UNL1        0.1484
      2 O          61.4873   89.9749   13.7779 O.3     1  UNL1       -0.3810
      3 H          60.7267   89.5182   13.3860 H       1  UNL1        0.2105
      4 C          62.6067   88.8831   11.7031 C.3     1  UNL1        0.1245
      5 N          61.4309   89.0318   10.7836 N.am    1  UNL1       -0.2735
      6 C          60.9747   87.8675    9.9552 C.2     1  UNL1        0.2492
      7 O          59.7989   88.0162    9.0358 O.2     1  UNL1       -0.2699
      8 C          61.6944   86.5545   10.0461 C.ar    1  UNL1        0.0567
      9 C          62.5476   86.0863    8.9048 C.ar    1  UNL1        0.0063
     10 C          63.2672   84.7734    8.9958 C.ar    1  UNL1        0.0225
     11 C          63.1336   83.9287   10.2281 C.ar    1  UNL1        0.1202
     12 N          63.7191   82.5992   10.6020 N.ar    1  UNL1       -0.1946
     13 C          63.2277   82.2458   11.9744 C.ar    1  UNL1        0.2925
     14 O          62.3385   83.3568   12.4487 O.2     1  UNL1       -0.4237
     15 C          62.2804   84.3969   11.3694 C.ar    1  UNL1        0.1662
     16 C          61.5608   85.7098   11.2785 C.ar    1  UNL1        0.0437
     17 N          63.5660   81.0000   12.7385 N.pl3   1  UNL1       -0.2601
     18 C          64.6753   81.0174   13.7480 C.3     1  UNL1        0.1167
     19 C          62.7951   79.7370   12.4929 C.3     1  UNL1        0.1167
     20 C          60.7112   90.3448   10.6927 C.3     1  UNL1        0.0937
     21 C          58.7911   91.9087   11.4785 C.3     1  UNL1        0.0018
     22 C          59.4325   90.5531   11.4487 C.3     1  UNL1        0.0199
     23 C          58.7952   89.4057   12.1750 C.3     1  UNL1        0.0018
     24 C          64.0218   90.3310   13.3313 C.3     1  UNL1        0.1075
     25 N          64.5951   91.4670   12.5370 N.am    1  UNL1       -0.2695
     26 C          65.3566   92.5577   13.2301 C.2     1  UNL1        0.4020
     27 O          65.5448   92.5124   14.7177 O.2     1  UNL1       -0.2264
     28 H          64.4715   91.4968   11.5607 H       1  UNL1        0.1528
     29 O          65.9298   93.6937   12.4359 O.3     1  UNL1       -0.4291
     30 C          66.5076   93.4410   11.0749 C.3     1  UNL1        0.2447
     31 C          66.8416   94.5944   10.1759 C.ar    1  UNL1        0.0714
     32 C          67.4533   94.4989    8.8096 C.ar    1  UNL1        0.1053
     33 N          67.6124   95.8912    8.2746 N.ar    1  UNL1       -0.2350
     34 C          67.0991   96.8472    9.3104 C.ar    1  UNL1        0.1343
     35 S          66.6227   96.0457   10.4854 S.2     1  UNL1       -0.0652
     36 C          64.7651   89.7964   14.5194 C.3     1  UNL1        0.0485
     37 C          64.2221   88.6213   15.2771 C.ar    1  UNL1       -0.0204
     38 C          63.3596   88.8410   16.4845 C.ar    1  UNL1       -0.0042
     39 C          62.8166   87.6658   17.2423 C.ar    1  UNL1       -0.0003
     40 C          63.1360   86.2710   16.7926 C.ar    1  UNL1       -0.0000
     41 C          63.9985   86.0512   15.5852 C.ar    1  UNL1       -0.0003
     42 C          64.5415   87.2263   14.8274 C.ar    1  UNL1       -0.0042
@<TRIPOS>BOND
     1    21    22    1
     2    22    23    1
     3    22    20    1
     4    20     5    1
     5     5     4    1
     6     4     1    1
     7     1     2    1
     8     1    24    1
     9    24    36    1
    10    36    37    1
    11    37    38   ar
    12    38    39   ar
    13    39    40   ar
    14    40    41   ar
    15    41    42   ar
    16    24    25    1
    17    25    26   am
    18    26    27    2
    19    26    29    1
    20    29    30    1
    21    30    31    1
    22    31    32   ar
    23    32    33   ar
    24    33    34   ar
    25    34    35   ar
    26     5     6   am
    27     6     7    2
    28     6     8    1
    29     8     9   ar
    30     9    10   ar
    31    10    11   ar
    32    11    12   ar
    33    12    13   ar
    34    13    17    1
    35    17    18    1
    36    17    19    1
    37    13    14   ar
    38    14    15   ar
    39    15    16   ar
    40    42    37   ar
    41    35    31   ar
    42    16     8   ar
    43    15    11   ar
    44     2     3    1
    45    25    28    1
@<TRIPOS>MOLECULE
*****
 42 45 0 0 0
SMALL
GASTEIGER

@<TRIPOS>ATOM
      1 C          62.5886   86.2600    9.5887 C.3     1  UNL1        0.1484
      2 O          62.9089   85.7889    8.2011 O.3     1  UNL1       -0.3810
      3 H          63.0492   86.5556    7.6236 H       1  UNL1        0.2105
      4 C          62.5297   87.7289    9.8871 C.3     1  UNL1        0.1245
      5 N          61.2022   88.4138   10.0237 N.am    1  UNL1       -0.2735
      6 C          61.1301   89.8061   10.5772 C.2     1  UNL1        0.2492
      7 O          59.8026   90.4910   10.7138 O.2     1  UNL1       -0.2699
      8 C          62.3855   90.5135   10.9941 C.ar    1  UNL1        0.0567
      9 C          63.1364   91.3544   10.0047 C.ar    1  UNL1        0.0063
     10 C          64.3917   92.0617   10.4217 C.ar    1  UNL1        0.0225
     11 C          64.8960   91.9281   11.8280 C.ar    1  UNL1        0.1202
     12 N          66.0944   92.5031   12.5234 N.ar    1  UNL1       -0.1946
     13 C          66.0840   92.0175   13.9426 C.ar    1  UNL1        0.2925
     14 O          64.8793   91.1425   14.1243 O.2     1  UNL1       -0.4237
     15 C          64.1451   91.0872   12.8174 C.ar    1  UNL1        0.1662
     16 C          62.8898   90.3799   12.4005 C.ar    1  UNL1        0.0437
     17 N          67.1000   92.3488   14.9953 N.pl3   1  UNL1       -0.2601
     18 C          68.5602   92.3555   14.6526 C.3     1  UNL1        0.1167
     19 C          66.6556   92.6733   16.3907 C.3     1  UNL1        0.1167
     20 C          59.9469   87.7065    9.6068 C.3     1  UNL1        0.0937
     21 C          59.4220   86.2555    7.5165 C.3     1  UNL1        0.0018
     22 C          59.5918   87.6031    8.1531 C.3     1  UNL1        0.0199
     23 C          59.4065   88.8473    7.3360 C.3     1  UNL1        0.0018
     24 C          62.3271   85.2623   10.6778 C.3     1  UNL1        0.1075
     25 N          62.3767   83.7936   10.3772 N.am    1  UNL1       -0.2695
     26 C          63.6945   83.0778   10.3494 C.2     1  UNL1        0.4020
     27 O          64.9629   83.8307   10.6221 O.2     1  UNL1       -0.2264
     28 H          61.5442   83.2994   10.1982 H       1  UNL1        0.1528
     29 O          63.7441   81.6091   10.0488 O.3     1  UNL1       -0.4291
     30 C          63.0741   80.6321   10.9689 C.3     1  UNL1        0.2447
     31 C          62.8924   80.9709   12.4189 C.ar    1  UNL1        0.0714
     32 C          63.9834   81.0776   13.4427 C.ar    1  UNL1        0.1053
     33 N          63.3532   81.4350   14.7562 N.ar    1  UNL1       -0.2350
     34 C          61.8726   81.5491   14.5440 C.ar    1  UNL1        0.1343
     35 S          61.5879   81.2622   13.0995 S.2     1  UNL1       -0.0652
     36 C          62.0162   85.7334   12.0675 C.3     1  UNL1        0.0485
     37 C          63.1158   85.8612   13.0797 C.ar    1  UNL1       -0.0204
     38 C          63.7972   84.6330   13.6060 C.ar    1  UNL1       -0.0042
     39 C          64.8969   84.7609   14.6182 C.ar    1  UNL1       -0.0003
     40 C          65.3151   86.1170   15.1040 C.ar    1  UNL1       -0.0000
     41 C          64.6336   87.3453   14.5777 C.ar    1  UNL1       -0.0003
     42 C          63.5340   87.2174   13.5655 C.ar    1  UNL1       -0.0042
@<TRIPOS>BOND
     1    21    22    1
     2    22    23    1
     3    22    20    1
     4    20     5    1
     5     5     4    1
     6     4     1    1
     7     1     2    1
     8     1    24    1
     9    24    36    1
    10    36    37    1
    11    37    38   ar
    12    38    39   ar
    13    39    40   ar
    14    40    41   ar
    15    41    42   ar
    16    24    25    1
    17    25    26   am
    18    26    27    2
    19    26    29    1
    20    29    30    1
    21    30    31    1
    22    31    32   ar
    23    32    33   ar
    24    33    34   ar
    25    34    35   ar
    26     5     6   am
    27     6     7    2
    28     6     8    1
    29     8     9   ar
    30     9    10   ar
    31    10    11   ar
    32    11    12   ar
    33    12    13   ar
    34    13    17    1
    35    17    18    1
    36    17    19    1
    37    13    14   ar
    38    14    15   ar
    39    15    16   ar
    40    42    37   ar
    41    35    31   ar
    42    16     8   ar
    43    15    11   ar
    44     2     3    1
    45    25    28    1
@<TRIPOS>MOLECULE
*****
 42 45 0 0 0
SMALL
GASTEIGER

@<TRIPOS>ATOM
      1 C          62.4406   86.3949   11.6462 C.3     1  UNL1        0.1484
      2 O          61.2623   85.4896   11.4414 O.3     1  UNL1       -0.3810
      3 H          60.6738   85.8714   10.7716 H       1  UNL1        0.2105
      4 C          62.5546   87.6672   10.8598 C.3     1  UNL1        0.1245
      5 N          61.3241   88.4617   10.5363 N.am    1  UNL1       -0.2735
      6 C          61.3476   89.9576   10.6432 C.2     1  UNL1        0.2492
      7 O          60.1171   90.7521   10.3197 O.2     1  UNL1       -0.2699
      8 C          62.6017   90.6592   11.0737 C.ar    1  UNL1        0.0567
      9 C          63.3552   91.5143   10.0985 C.ar    1  UNL1        0.0063
     10 C          64.6091   92.2158   10.5289 C.ar    1  UNL1        0.0225
     11 C          65.1097   92.0622   11.9346 C.ar    1  UNL1        0.1202
     12 N          66.3060   92.6273   12.6414 N.ar    1  UNL1       -0.1946
     13 C          66.2919   92.1214   14.0534 C.ar    1  UNL1        0.2925
     14 O          65.0868   91.2437   14.2193 O.2     1  UNL1       -0.4237
     15 C          64.3562   91.2071   12.9098 C.ar    1  UNL1        0.1662
     16 C          63.1023   90.5056   12.4793 C.ar    1  UNL1        0.0437
     17 N          67.3049   92.4377   15.1136 N.pl3   1  UNL1       -0.2601
     18 C          68.7661   92.4499   14.7749 C.3     1  UNL1        0.1167
     19 C          66.8567   92.7419   16.5123 C.3     1  UNL1        0.1167
     20 C          60.0700   87.7601   10.1059 C.3     1  UNL1        0.0937
     21 C          59.3239   88.5081    7.7323 C.3     1  UNL1        0.0018
     22 C          59.8454   87.4476    8.6561 C.3     1  UNL1        0.0199
     23 C          60.1423   86.0745    8.1300 C.3     1  UNL1        0.0018
     24 C          63.5050   86.0280   12.6374 C.3     1  UNL1        0.1075
     25 N          63.9713   84.6063   12.7454 N.am    1  UNL1       -0.2695
     26 C          64.1290   83.7727   11.5084 C.2     1  UNL1        0.4020
     27 O          63.8202   84.3608   10.1633 O.2     1  UNL1       -0.2264
     28 H          64.1739   84.2204   13.6282 H       1  UNL1        0.1528
     29 O          64.5953   82.3512   11.6163 O.3     1  UNL1       -0.4291
     30 C          64.4550   81.6123   12.9141 C.3     1  UNL1        0.2447
     31 C          63.0954   81.2149   13.4077 C.ar    1  UNL1        0.0714
     32 C          62.1718   82.0657   14.2281 C.ar    1  UNL1        0.1053
     33 N          60.9263   81.2736   14.4951 N.ar    1  UNL1       -0.2350
     34 C          61.0802   79.9332   13.8396 C.ar    1  UNL1        0.1343
     35 S          62.4207   79.8969   13.1676 S.2     1  UNL1       -0.0652
     36 C          64.1030   87.0826   13.5206 C.3     1  UNL1        0.0485
     37 C          63.6997   87.1702   14.9627 C.ar    1  UNL1       -0.0204
     38 C          63.4839   88.5103   15.6010 C.ar    1  UNL1       -0.0042
     39 C          63.0806   88.5979   17.0432 C.ar    1  UNL1       -0.0003
     40 C          62.8932   87.3454   17.8470 C.ar    1  UNL1       -0.0000
     41 C          63.1091   86.0053   17.2087 C.ar    1  UNL1       -0.0003
     42 C          63.5123   85.9176   15.7666 C.ar    1  UNL1       -0.0042
@<TRIPOS>BOND
     1    21    22    1
     2    22    23    1
     3    22    20    1
     4    20     5    1
     5     5     4    1
     6     4     1    1
     7     1     2    1
     8     1    24    1
     9    24    36    1
    10    36    37    1
    11    37    38   ar
    12    38    39   ar
    13    39    40   ar
    14    40    41   ar
    15    41    42   ar
    16    24    25    1
    17    25    26   am
    18    26    27    2
    19    26    29    1
    20    29    30    1
    21    30    31    1
    22    31    32   ar
    23    32    33   ar
    24    33    34   ar
    25    34    35   ar
    26     5     6   am
    27     6     7    2
    28     6     8    1
    29     8     9   ar
    30     9    10   ar
    31    10    11   ar
    32    11    12   ar
    33    12    13   ar
    34    13    17    1
    35    17    18    1
    36    17    19    1
    37    13    14   ar
    38    14    15   ar
    39    15    16   ar
    40    42    37   ar
    41    35    31   ar
    42    16     8   ar
    43    15    11   ar
    44     2     3    1
    45    25    28    1
@<TRIPOS>MOLECULE
*****
 42 45 0 0 0
SMALL
GASTEIGER

@<TRIPOS>ATOM
      1 C          61.0198   89.1118   11.0839 C.3     1  UNL1        0.1484
      2 O          60.2030   90.1003   11.8621 O.3     1  UNL1       -0.3810
      3 H          60.6540   90.3076   12.6954 H       1  UNL1        0.2105
      4 C          62.3191   88.6093   11.6403 C.3     1  UNL1        0.1245
      5 N          63.1290   89.4786   12.5560 N.am    1  UNL1       -0.2735
      6 C          63.9277   88.8604   13.6650 C.2     1  UNL1        0.2492
      7 O          64.7375   89.7296   14.5807 O.2     1  UNL1       -0.2699
      8 C          63.9166   87.3729   13.8583 C.ar    1  UNL1        0.0567
      9 C          64.4337   86.7785   15.1347 C.ar    1  UNL1        0.0063
     10 C          64.4226   85.2911   15.3279 C.ar    1  UNL1        0.0225
     11 C          63.8943   84.3980   14.2447 C.ar    1  UNL1        0.1202
     12 N          63.7580   82.9071   14.1505 N.ar    1  UNL1       -0.1946
     13 C          63.1566   82.5801   12.8158 C.ar    1  UNL1        0.2925
     14 O          62.9213   83.8688   12.0852 O.2     1  UNL1       -0.4237
     15 C          63.3772   84.9923   12.9683 C.ar    1  UNL1        0.1662
     16 C          63.3883   86.4798   12.7751 C.ar    1  UNL1        0.0437
     17 N          62.8452   81.2057   12.3020 N.pl3   1  UNL1       -0.2601
     18 C          63.0755   80.8752   10.8571 C.3     1  UNL1        0.1167
     19 C          62.3035   80.1618   13.2330 C.3     1  UNL1        0.1167
     20 C          63.1401   90.9661   12.3628 C.3     1  UNL1        0.0937
     21 C          63.3757   91.5155    9.8344 C.3     1  UNL1        0.0018
     22 C          63.9187   91.5696   11.2316 C.3     1  UNL1        0.0199
     23 C          65.2404   92.2272   11.4977 C.3     1  UNL1        0.0018
     24 C          60.5374   88.6257    9.7494 C.3     1  UNL1        0.1075
     25 N          60.4256   89.5814    8.5987 N.am    1  UNL1       -0.2695
     26 C          59.3907   89.3581    7.5361 C.2     1  UNL1        0.4020
     27 O          58.4676   88.1791    7.6242 O.2     1  UNL1       -0.2264
     28 H          61.0315   90.3553    8.5408 H       1  UNL1        0.1528
     29 O          59.2789   90.3138    6.3854 O.3     1  UNL1       -0.4291
     30 C          60.4054   90.4401    5.4031 C.3     1  UNL1        0.2447
     31 C          60.3760   91.5206    4.3630 C.ar    1  UNL1        0.0714
     32 C          59.2133   92.4171    4.0557 C.ar    1  UNL1        0.1053
     33 N          59.6228   93.3448    2.9504 N.ar    1  UNL1       -0.2350
     34 C          61.0386   93.0216    2.5746 C.ar    1  UNL1        0.1343
     35 S          61.5040   91.8942    3.4476 S.2     1  UNL1       -0.0652
     36 C          60.1669   87.1838    9.5655 C.3     1  UNL1        0.0485
     37 C          61.0218   86.2925    8.7143 C.ar    1  UNL1       -0.0204
     38 C          60.4814   85.7394    7.4290 C.ar    1  UNL1       -0.0042
     39 C          61.3364   84.8480    6.5778 C.ar    1  UNL1       -0.0003
     40 C          62.7317   84.5097    7.0120 C.ar    1  UNL1       -0.0000
     41 C          63.2722   85.0628    8.2973 C.ar    1  UNL1       -0.0003
     42 C          62.4172   85.9542    9.1484 C.ar    1  UNL1       -0.0042
@<TRIPOS>BOND
     1    21    22    1
     2    22    23    1
     3    22    20    1
     4    20     5    1
     5     5     4    1
     6     4     1    1
     7     1     2    1
     8     1    24    1
     9    24    36    1
    10    36    37    1
    11    37    38   ar
    12    38    39   ar
    13    39    40   ar
    14    40    41   ar
    15    41    42   ar
    16    24    25    1
    17    25    26   am
    18    26    27    2
    19    26    29    1
    20    29    30    1
    21    30    31    1
    22    31    32   ar
    23    32    33   ar
    24    33    34   ar
    25    34    35   ar
    26     5     6   am
    27     6     7    2
    28     6     8    1
    29     8     9   ar
    30     9    10   ar
    31    10    11   ar
    32    11    12   ar
    33    12    13   ar
    34    13    17    1
    35    17    18    1
    36    17    19    1
    37    13    14   ar
    38    14    15   ar
    39    15    16   ar
    40    42    37   ar
    41    35    31   ar
    42    16     8   ar
    43    15    11   ar
    44     2     3    1
    45    25    28    1
@<TRIPOS>MOLECULE
*****
 42 45 0 0 0
SMALL
GASTEIGER

@<TRIPOS>ATOM
      1 C          62.6268   86.0474   10.3590 C.3     1  UNL1        0.1484
      2 O          62.7379   85.8130    8.8817 O.3     1  UNL1       -0.3810
      3 H          62.6338   86.6552    8.4119 H       1  UNL1        0.2105
      4 C          62.3894   87.4328   10.8829 C.3     1  UNL1        0.1245
      5 N          61.1764   88.2010   10.4489 N.am    1  UNL1       -0.2735
      6 C          61.1829   89.7003   10.4927 C.2     1  UNL1        0.2492
      7 O          59.9698   90.4686   10.0588 O.2     1  UNL1       -0.2699
      8 C          62.4024   90.4315   10.9705 C.ar    1  UNL1        0.0567
      9 C          63.1670   91.3117   10.0268 C.ar    1  UNL1        0.0063
     10 C          64.3864   92.0427   10.5046 C.ar    1  UNL1        0.0225
     11 C          64.8414   91.8936   11.9261 C.ar    1  UNL1        0.1202
     12 N          65.9971   92.4853   12.6774 N.ar    1  UNL1       -0.1946
     13 C          65.9468   91.9707   14.0854 C.ar    1  UNL1        0.2925
     14 O          64.7600   91.0611   14.2044 O.2     1  UNL1       -0.4237
     15 C          64.0768   91.0135   12.8699 C.ar    1  UNL1        0.1662
     16 C          62.8573   90.2824   12.3921 C.ar    1  UNL1        0.0437
     17 N          66.9136   92.3067   15.1821 N.pl3   1  UNL1       -0.2601
     18 C          66.4074   92.6118   16.5607 C.3     1  UNL1        0.1167
     19 C          68.3865   92.3377   14.9000 C.3     1  UNL1        0.1167
     20 C          59.9568   87.4699    9.9712 C.3     1  UNL1        0.0937
     21 C          59.7481   86.0036    7.8366 C.3     1  UNL1        0.0018
     22 C          59.6840   87.3467    8.5013 C.3     1  UNL1        0.0199
     23 C          59.3472   88.5667    7.6962 C.3     1  UNL1        0.0018
     24 C          62.7531   84.8964   11.3126 C.3     1  UNL1        0.1075
     25 N          63.2959   85.1220   12.6927 N.am    1  UNL1       -0.2695
     26 C          64.5182   84.3814   13.1483 C.2     1  UNL1        0.4020
     27 O          65.1977   83.4152   12.2237 O.2     1  UNL1       -0.2264
     28 H          62.8498   85.7561   13.2995 H       1  UNL1        0.1528
     29 O          65.0609   84.6069   14.5283 O.3     1  UNL1       -0.4291
     30 C          64.1214   84.7773   15.6851 C.3     1  UNL1        0.2447
     31 C          63.7011   86.1521   16.1138 C.ar    1  UNL1        0.0714
     32 C          64.0003   87.4313   15.3899 C.ar    1  UNL1        0.1053
     33 N          63.3921   88.5587   16.1702 N.ar    1  UNL1       -0.2350
     34 C          62.7169   87.9762   17.3764 C.ar    1  UNL1        0.1343
     35 S          62.9079   86.4888   17.3415 S.2     1  UNL1       -0.0652
     36 C          62.3368   83.5199   10.8862 C.3     1  UNL1        0.0485
     37 C          62.3146   82.4003   11.8840 C.ar    1  UNL1       -0.0204
     38 C          62.7906   81.0338   11.4888 C.ar    1  UNL1       -0.0042
     39 C          62.7684   79.9141   12.4867 C.ar    1  UNL1       -0.0003
     40 C          62.2701   80.1609   13.8798 C.ar    1  UNL1       -0.0000
     41 C          61.7940   81.5273   14.2751 C.ar    1  UNL1       -0.0003
     42 C          61.8163   82.6470   13.2772 C.ar    1  UNL1       -0.0042
@<TRIPOS>BOND
     1    21    22    1
     2    22    23    1
     3    22    20    1
     4    20     5    1
     5     5     4    1
     6     4     1    1
     7     1     2    1
     8     1    24    1
     9    24    36    1
    10    36    37    1
    11    37    38   ar
    12    38    39   ar
    13    39    40   ar
    14    40    41   ar
    15    41    42   ar
    16    24    25    1
    17    25    26   am
    18    26    27    2
    19    26    29    1
    20    29    30    1
    21    30    31    1
    22    31    32   ar
    23    32    33   ar
    24    33    34   ar
    25    34    35   ar
    26     5     6   am
    27     6     7    2
    28     6     8    1
    29     8     9   ar
    30     9    10   ar
    31    10    11   ar
    32    11    12   ar
    33    12    13   ar
    34    13    17    1
    35    17    18    1
    36    17    19    1
    37    13    14   ar
    38    14    15   ar
    39    15    16   ar
    40    42    37   ar
    41    35    31   ar
    42    16     8   ar
    43    15    11   ar
    44     2     3    1
    45    25    28    1
@<TRIPOS>MOLECULE
*****
 42 45 0 0 0
SMALL
GASTEIGER

@<TRIPOS>ATOM
      1 C          62.3462   85.6806   11.2014 C.3     1  UNL1        0.1484
      2 O          61.1115   85.9841   11.9972 O.3     1  UNL1       -0.3810
      3 H          60.5974   86.6723   11.5466 H       1  UNL1        0.2105
      4 C          62.6114   86.4134    9.9197 C.3     1  UNL1        0.1245
      5 N          61.4674   86.9566    9.1158 N.am    1  UNL1       -0.2735
      6 C          61.0288   88.3789    9.3017 C.2     1  UNL1        0.2492
      7 O          59.8848   88.9221    8.4978 O.2     1  UNL1       -0.2699
      8 C          61.7341   89.2581   10.2915 C.ar    1  UNL1        0.0567
      9 C          61.3179   89.2492   11.7326 C.ar    1  UNL1        0.0063
     10 C          62.0233   90.1284   12.7223 C.ar    1  UNL1        0.0225
     11 C          63.1448   91.0164   12.2709 C.ar    1  UNL1        0.1202
     12 N          64.0193   91.9840   13.0120 N.ar    1  UNL1       -0.1946
     13 C          64.9759   92.5908   12.0288 C.ar    1  UNL1        0.2925
     14 O          64.6926   91.9983   10.6802 O.2     1  UNL1       -0.4237
     15 C          63.5609   91.0252   10.8299 C.ar    1  UNL1        0.1662
     16 C          62.8556   90.1461    9.8402 C.ar    1  UNL1        0.0437
     17 N          66.0307   93.6111   12.3396 N.pl3   1  UNL1       -0.2601
     18 C          66.4572   94.5929   11.2888 C.3     1  UNL1        0.1167
     19 C          66.6588   93.6497   13.7012 C.3     1  UNL1        0.1167
     20 C          60.7621   86.0775    8.1260 C.3     1  UNL1        0.0937
     21 C          60.8887   84.4645    6.0932 C.3     1  UNL1        0.0018
     22 C          61.5515   85.1485    7.2520 C.3     1  UNL1        0.0199
     23 C          63.0038   84.9037    7.5368 C.3     1  UNL1        0.0018
     24 C          63.3157   84.6443   11.6873 C.3     1  UNL1        0.1075
     25 N          63.9904   84.8131   13.0164 N.am    1  UNL1       -0.2695
     26 C          63.1972   84.6795   14.2824 C.2     1  UNL1        0.4020
     27 O          61.7292   84.3773   14.2194 O.2     1  UNL1       -0.2264
     28 H          64.9538   85.0115   13.0577 H       1  UNL1        0.1528
     29 O          63.8718   84.8483   15.6115 O.3     1  UNL1       -0.4291
     30 C          63.4174   85.9250   16.5519 C.3     1  UNL1        0.2447
     31 C          63.5868   87.3678   16.1781 C.ar    1  UNL1        0.0714
     32 C          64.3702   87.8899   15.0103 C.ar    1  UNL1        0.1053
     33 N          64.2702   89.3866   15.0168 N.ar    1  UNL1       -0.2350
     34 C          63.4249   89.7894   16.1888 C.ar    1  UNL1        0.1343
     35 S          63.0026   88.5418   16.9064 S.2     1  UNL1       -0.0652
     36 C          63.6106   83.4393   10.8441 C.3     1  UNL1        0.0485
     37 C          63.2332   82.0720   11.3320 C.ar    1  UNL1       -0.0204
     38 C          62.8770   81.8621   12.7739 C.ar    1  UNL1       -0.0042
     39 C          62.4996   80.4947   13.2618 C.ar    1  UNL1       -0.0003
     40 C          62.4784   79.3374   12.3078 C.ar    1  UNL1       -0.0000
     41 C          62.8345   79.5474   10.8659 C.ar    1  UNL1       -0.0003
     42 C          63.2119   80.9146   10.3780 C.ar    1  UNL1       -0.0042
@<TRIPOS>BOND
     1    21    22    1
     2    22    23    1
     3    22    20    1
     4    20     5    1
     5     5     4    1
     6     4     1    1
     7     1     2    1
     8     1    24    1
     9    24    36    1
    10    36    37    1
    11    37    38   ar
    12    38    39   ar
    13    39    40   ar
    14    40    41   ar
    15    41    42   ar
    16    24    25    1
    17    25    26   am
    18    26    27    2
    19    26    29    1
    20    29    30    1
    21    30    31    1
    22    31    32   ar
    23    32    33   ar
    24    33    34   ar
    25    34    35   ar
    26     5     6   am
    27     6     7    2
    28     6     8    1
    29     8     9   ar
    30     9    10   ar
    31    10    11   ar
    32    11    12   ar
    33    12    13   ar
    34    13    17    1
    35    17    18    1
    36    17    19    1
    37    13    14   ar
    38    14    15   ar
    39    15    16   ar
    40    42    37   ar
    41    35    31   ar
    42    16     8   ar
    43    15    11   ar
    44     2     3    1
    45    25    28    1
@<TRIPOS>MOLECULE
*****
 42 45 0 0 0
SMALL
GASTEIGER

@<TRIPOS>ATOM
      1 C          62.6559   86.8199   10.9312 C.3     1  UNL1        0.1484
      2 O          62.7865   87.0927   12.4003 O.3     1  UNL1       -0.3810
      3 H          62.6260   88.0341   12.5699 H       1  UNL1        0.2105
      4 C          62.3227   87.9373    9.9875 C.3     1  UNL1        0.1245
      5 N          61.0438   88.7033   10.1541 N.am    1  UNL1       -0.2735
      6 C          61.0719   90.0998   10.7011 C.2     1  UNL1        0.2492
      7 O          59.7930   90.8658   10.8677 O.2     1  UNL1       -0.2699
      8 C          62.3788   90.7302   11.0815 C.ar    1  UNL1        0.0567
      9 C          63.1811   91.4717   10.0537 C.ar    1  UNL1        0.0063
     10 C          64.4879   92.1021   10.4341 C.ar    1  UNL1        0.0225
     11 C          64.9924   91.9910   11.8423 C.ar    1  UNL1        0.1202
     12 N          66.2350   92.5053   12.5069 N.ar    1  UNL1       -0.1946
     13 C          66.2006   92.0817   13.9454 C.ar    1  UNL1        0.2925
     14 O          64.9368   91.3055   14.1699 O.2     1  UNL1       -0.4237
     15 C          64.1901   91.2495   12.8702 C.ar    1  UNL1        0.1662
     16 C          62.8833   90.6191   12.4897 C.ar    1  UNL1        0.0437
     17 N          67.2464   92.3815   14.9781 N.pl3   1  UNL1       -0.2601
     18 C          66.8401   92.7002   16.3864 C.3     1  UNL1        0.1167
     19 C          68.6985   92.3626   14.6025 C.3     1  UNL1        0.1167
     20 C          59.7369   88.0729    9.7737 C.3     1  UNL1        0.0937
     21 C          58.4491   86.9295    7.8285 C.3     1  UNL1        0.0018
     22 C          59.3044   88.0516    8.3376 C.3     1  UNL1        0.0199
     23 C          59.7272   89.1525    7.4106 C.3     1  UNL1        0.0018
     24 C          62.8587   85.4297   10.4055 C.3     1  UNL1        0.1075
     25 N          62.3905   84.2499   11.2050 N.am    1  UNL1       -0.2695
     26 C          63.3325   83.1194   11.4955 C.2     1  UNL1        0.4020
     27 O          64.7428   83.1686   10.9866 O.2     1  UNL1       -0.2264
     28 H          61.4649   84.2176   11.5389 H       1  UNL1        0.1528
     29 O          62.8644   81.9396   12.2949 O.3     1  UNL1       -0.4291
     30 C          62.9653   81.9600   13.7914 C.3     1  UNL1        0.2447
     31 C          63.1375   83.2633   14.5138 C.ar    1  UNL1        0.0714
     32 C          62.0423   84.0781   15.1357 C.ar    1  UNL1        0.1053
     33 N          62.6630   85.2989   15.7474 N.ar    1  UNL1       -0.2350
     34 C          64.1419   85.2387   15.5036 C.ar    1  UNL1        0.1343
     35 S          64.4351   83.9806   14.7412 S.2     1  UNL1       -0.0652
     36 C          63.5295   85.2192    9.0806 C.3     1  UNL1        0.0485
     37 C          62.7053   84.9447    7.8578 C.ar    1  UNL1       -0.0204
     38 C          61.2153   85.1117    7.9047 C.ar    1  UNL1       -0.0042
     39 C          60.3910   84.8372    6.6818 C.ar    1  UNL1       -0.0003
     40 C          61.0567   84.3957    5.4122 C.ar    1  UNL1       -0.0000
     41 C          62.5466   84.2287    5.3654 C.ar    1  UNL1       -0.0003
     42 C          63.3709   84.5032    6.5881 C.ar    1  UNL1       -0.0042
@<TRIPOS>BOND
     1    21    22    1
     2    22    23    1
     3    22    20    1
     4    20     5    1
     5     5     4    1
     6     4     1    1
     7     1     2    1
     8     1    24    1
     9    24    36    1
    10    36    37    1
    11    37    38   ar
    12    38    39   ar
    13    39    40   ar
    14    40    41   ar
    15    41    42   ar
    16    24    25    1
    17    25    26   am
    18    26    27    2
    19    26    29    1
    20    29    30    1
    21    30    31    1
    22    31    32   ar
    23    32    33   ar
    24    33    34   ar
    25    34    35   ar
    26     5     6   am
    27     6     7    2
    28     6     8    1
    29     8     9   ar
    30     9    10   ar
    31    10    11   ar
    32    11    12   ar
    33    12    13   ar
    34    13    17    1
    35    17    18    1
    36    17    19    1
    37    13    14   ar
    38    14    15   ar
    39    15    16   ar
    40    42    37   ar
    41    35    31   ar
    42    16     8   ar
    43    15    11   ar
    44     2     3    1
    45    25    28    1
