@<TRIPOS>MOLECULE
*****
 76 85 0 0 0
SMALL
GASTEIGER

@<TRIPOS>ATOM
      1 C          62.7464   95.6076    0.3954 C.ar    1  UNL1        0.0135
      2 C          62.0614   96.8544    0.8712 C.ar    1  UNL1       -0.0012
      3 C          60.9711   96.7661    1.8975 C.ar    1  UNL1       -0.0002
      4 C          60.5656   95.4310    2.4479 C.ar    1  UNL1        0.0015
      5 C          61.2506   94.1842    1.9721 C.ar    1  UNL1        0.0170
      6 C          61.0671   92.7392    2.3302 C.ar    1  UNL1        0.0186
      7 C          62.0440   91.9344    1.5253 C.ar    1  UNL1        0.0759
      8 N          62.8313   92.8821    0.6697 N.ar    1  UNL1       -0.3242
      9 C          63.9181   92.5055   -0.2930 C.3     1  UNL1        0.1305
     10 C          62.3409   94.2725    0.9458 C.ar    1  UNL1        0.0575
     11 C          60.0798   92.1945    3.3196 C.ar    1  UNL1        0.0016
     12 C          58.6806   92.7336    3.3574 C.ar    1  UNL1        0.0001
     13 C          57.6935   92.1890    4.3468 C.ar    1  UNL1        0.0001
     14 C          58.1056   91.1052    5.2984 C.ar    1  UNL1        0.0045
     15 C          59.5048   90.5660    5.2606 C.ar    1  UNL1        0.0537
     16 C          60.4919   91.1107    4.2713 C.ar    1  UNL1        0.0046
     17 C          59.9169   89.4822    6.2122 C.2     1  UNL1        0.2495
     18 O          59.7803   88.0425    5.8140 O.2     1  UNL1       -0.2698
     19 N          60.4656   89.8381    7.5621 N.am    1  UNL1       -0.2804
     20 H          60.5553   90.7830    7.8235 H       1  UNL1        0.1552
     21 C          60.8777   88.7543    8.5137 C.ar    1  UNL1        0.0506
     22 C          59.8655   88.1397    9.4344 C.ar    1  UNL1        0.0159
     23 C          60.2775   87.0559   10.3860 C.ar    1  UNL1        0.0158
     24 C          61.7019   86.5867   10.4170 C.ar    1  UNL1        0.0480
     25 C          62.7142   87.2013    9.4964 C.ar    1  UNL1        0.0158
     26 C          62.3021   88.2851    8.5447 C.ar    1  UNL1        0.0159
     27 N          62.1140   85.5029   11.3686 N.pl3   1  UNL1       -0.3041
     28 C          62.1584   84.0764   10.9069 C.3     1  UNL1        0.1122
     29 C          62.5705   82.9926   11.8585 C.3     1  UNL1        0.1122
     30 N          62.9382   83.3353   13.2718 N.pl3   1  UNL1       -0.3041
     31 C          62.8937   84.7618   13.7335 C.3     1  UNL1        0.1122
     32 C          62.4817   85.8456   12.7819 C.3     1  UNL1        0.1122
     33 C          63.3502   82.2515   14.2234 C.ar    1  UNL1        0.0481
     34 C          62.7718   80.8743   14.0876 C.ar    1  UNL1        0.0176
     35 C          63.1838   79.7905   15.0392 C.ar    1  UNL1        0.0382
     36 C          64.1745   80.0839   16.1267 C.ar    1  UNL1        0.1388
     37 C          64.7530   81.4613   16.2626 C.ar    1  UNL1        0.0382
     38 C          64.3409   82.5451   15.3109 C.ar    1  UNL1        0.0176
     39 O          64.5865   79.0001   17.0783 O.3     1  UNL1       -0.4714
     40 C          63.5746   78.3868   18.0001 C.3     1  UNL1        0.2525
     41 C          63.8368   95.6960   -0.6309 C.3     1  UNL1        0.1217
     42 N          60.0236   95.4279   -5.9354 N.3     1  UNL1       -0.1862
     43 C          61.0630   95.8805   -6.9175 C.3     1  UNL1        0.1775
     44 C          62.4494   96.2056   -6.4460 C.2     1  UNL1        0.2452
     45 O          63.4888   96.6582   -7.4282 O.2     1  UNL1       -0.2732
     46 N          62.7962   96.0782   -4.9922 N.am    1  UNL1       -0.2541
     47 C          64.1825   96.4034   -4.5206 C.3     1  UNL1        0.1577
     48 C          64.5294   96.2760   -3.0669 C.2     1  UNL1        0.2445
     49 O          65.9157   96.6011   -2.5953 O.2     1  UNL1       -0.2731
     50 N          63.4899   95.8234   -2.0847 N.am    1  UNL1       -0.2705
     51 C          62.1036   95.4982   -2.5562 C.3     1  UNL1        0.1359
     52 C          61.7568   95.6257   -4.0101 C.3     1  UNL1        0.1908
     53 N          60.3704   95.3005   -4.4817 N.am    1  UNL1       -0.1863
     54 C          59.3310   94.8480   -3.4994 C.2     1  UNL1        0.3191
     55 O          59.6778   94.7206   -2.0457 O.2     1  UNL1       -0.2512
     56 N          57.9446   94.5228   -3.9710 N.am    1  UNL1       -0.2836
     57 H          57.7170   94.6064   -4.9252 H       1  UNL1        0.1513
     58 C          58.6373   95.1028   -6.4070 C.3     1  UNL1        0.1188
     59 C          56.4169   96.0308   -7.3861 C.2     1  UNL1       -0.0034
     60 C          57.5943   96.1791   -6.4686 C.2     1  UNL1       -0.0071
     61 C          65.2220   96.8559   -5.5028 C.3     1  UNL1        0.0556
     62 C          66.2415   95.8834   -6.0173 C.ar    1  UNL1       -0.0198
     63 C          65.9722   94.4093   -5.9512 C.ar    1  UNL1       -0.0011
     64 C          66.9918   93.4367   -6.4657 C.ar    1  UNL1        0.0363
     65 C          68.2806   93.9383   -7.0464 C.ar    1  UNL1        0.1337
     66 O          69.3002   92.9658   -7.5609 O.3     1  UNL1       -0.5055
     67 C          68.5500   95.4125   -7.1125 C.ar    1  UNL1        0.0363
     68 C          67.5305   96.3850   -6.5980 C.ar    1  UNL1       -0.0011
     69 H          69.1319   92.0450   -7.5196 H       1  UNL1        0.2922
     70 C          56.9052   94.0703   -2.9888 C.3     1  UNL1        0.1177
     71 C          56.2859   92.7109   -3.1252 C.ar    1  UNL1       -0.0025
     72 C          56.0379   91.8740   -1.9054 C.ar    1  UNL1       -0.0026
     73 C          55.4186   90.5146   -2.0417 C.ar    1  UNL1       -0.0003
     74 C          55.0473   89.9921   -3.3978 C.ar    1  UNL1       -0.0000
     75 C          55.2953   90.8291   -4.6178 C.ar    1  UNL1       -0.0003
     76 C          55.9146   92.1885   -4.4814 C.ar    1  UNL1       -0.0026
@<TRIPOS>BOND
     1    59    60    2
     2    60    58    1
     3    58    42    1
     4    42    43    1
     5    43    44    1
     6    44    45    2
     7    44    46   am
     8    46    47    1
     9    47    61    1
    10    61    62    1
    11    62    63   ar
    12    63    64   ar
    13    64    65   ar
    14    65    66    1
    15    65    67   ar
    16    67    68   ar
    17    47    48    1
    18    48    49    2
    19    48    50   am
    20    50    41    1
    21    41     1    1
    22     1     2   ar
    23     2     3   ar
    24     3     4   ar
    25     4     5   ar
    26     5     6   ar
    27     6    11    1
    28    11    12   ar
    29    12    13   ar
    30    13    14   ar
    31    14    15   ar
    32    15    17    1
    33    17    18    2
    34    17    19   am
    35    19    21    1
    36    21    22   ar
    37    22    23   ar
    38    23    24   ar
    39    24    27    1
    40    27    28    1
    41    28    29    1
    42    29    30    1
    43    30    33    1
    44    33    34   ar
    45    34    35   ar
    46    35    36   ar
    47    36    39    1
    48    39    40    1
    49    36    37   ar
    50    37    38   ar
    51    30    31    1
    52    31    32    1
    53    24    25   ar
    54    25    26   ar
    55    15    16   ar
    56     6     7   ar
    57     7     8   ar
    58     8     9    1
    59     8    10   ar
    60    50    51    1
    61    52    51    1
    62    52    53    1
    63    53    54   am
    64    54    55    2
    65    54    56   am
    66    56    70    1
    67    70    71    1
    68    71    72   ar
    69    72    73   ar
    70    73    74   ar
    71    74    75   ar
    72    75    76   ar
    73    53    42    1
    74    76    71   ar
    75    52    46    1
    76    68    62   ar
    77    10     1   ar
    78    10     5   ar
    79    16    11   ar
    80    26    21   ar
    81    32    27    1
    82    38    33   ar
    83    66    69    1
    84    19    20    1
    85    56    57    1
