@<TRIPOS>MOLECULE
*****
 40 45 0 0 0
SMALL
GASTEIGER

@<TRIPOS>ATOM
      1 C          65.3301   91.6834   12.7046 C.ar    1  UNL1        0.0400
      2 C          64.0782   90.9585   12.3083 C.ar    1  UNL1        0.0422
      3 C          63.3689   90.0878   13.3028 C.ar    1  UNL1        0.1660
      4 C          63.9117   89.9421   14.6936 C.ar    1  UNL1        0.1829
      5 N          65.1637   90.6670   15.0898 N.ar    1  UNL1       -0.2320
      6 C          65.8729   91.5377   14.0954 C.ar    1  UNL1        0.0868
      7 C          64.5516   96.8552    9.9774 C.3     1  UNL1        0.0557
      8 C          65.7874   96.0557    9.6884 C.ar    1  UNL1        0.1015
      9 N          66.8879   96.4434    8.7457 N.ar    1  UNL1       -0.1493
     10 N          67.9203   95.3554    8.7661 N.ar    1  UNL1       -0.1291
     11 C          67.4579   94.2953    9.7213 C.ar    1  UNL1        0.1811
     12 N          68.0669   92.9919   10.1457 N.ar    1  UNL1       -0.3335
     13 C          67.3576   92.1213   11.1401 C.ar    1  UNL1        0.0929
     14 C          66.0394   92.5541   11.7102 C.ar    1  UNL1        0.0999
     15 N          65.4304   93.8575   11.2858 N.ar    1  UNL1       -0.2395
     16 C          66.1397   94.7281   10.2913 C.ar    1  UNL1        0.1320
     17 H          68.9321   92.7078    9.7716 H       1  UNL1        0.1675
     18 C          67.1249   92.2626   14.4917 C.ar    1  UNL1        0.0585
     19 C          67.2089   93.4270   15.4336 C.ar    1  UNL1        0.0453
     20 C          68.6486   93.8345   15.5396 C.ar    1  UNL1        0.1798
     21 O          69.4544   92.9219   14.6632 O.2     1  UNL1       -0.4473
     22 C          68.5127   91.9505   14.0155 C.ar    1  UNL1        0.1812
     23 C          63.2025   89.0714   15.6880 C.1     1  UNL1        0.1229
     24 N          62.4933   88.2008   16.6825 N.1     1  UNL1       -0.1892
     25 O          62.1170   89.3629   12.9065 O.3     1  UNL1       -0.4718
     26 C          61.3000   89.8548   11.7487 C.3     1  UNL1        0.2211
     27 C          60.9234   88.9139   10.6430 C.3     1  UNL1        0.0995
     28 N          60.6718   89.4421    9.2617 N.3     1  UNL1       -0.3190
     29 H          60.4290   88.6697    8.6414 H       1  UNL1        0.1189
     30 H          61.5128   89.9044    8.9161 H       1  UNL1        0.1189
     31 C          60.7983   87.4447   10.9185 C.3     1  UNL1        0.0472
     32 C          61.6601   86.4665   10.1766 C.2     1  UNL1       -0.0005
     33 C          61.9040   86.4517    8.6966 C.2     1  UNL1        0.0942
     34 N          62.8240   85.3074    8.3898 N.2     1  UNL1       -0.2482
     35 C          63.1488   84.6149    9.6802 C.2     1  UNL1        0.0631
     36 C          64.0064   83.4246    9.9924 C.3     1  UNL1        0.0717
     37 C          64.1449   82.9506   11.4088 C.2     1  UNL1       -0.0198
     38 C          63.4255   83.6669   12.5130 C.2     1  UNL1       -0.0042
     39 C          62.5678   84.8573   12.2009 C.2     1  UNL1        0.0006
     40 C          62.4294   85.3312   10.7845 C.2     1  UNL1        0.0114
@<TRIPOS>BOND
     1     7     8    1
     2     8     9   ar
     3     9    10   ar
     4    10    11   ar
     5    11    12   ar
     6    12    13   ar
     7    13    14   ar
     8    14     1    1
     9     1     2   ar
    10     2     3   ar
    11     3    25    1
    12    25    26    1
    13    26    27    1
    14    27    28    1
    15    27    31    1
    16    31    32    1
    17    32    33    2
    18    33    34    1
    19    34    35    2
    20    35    36    1
    21    36    37    1
    22    37    38    2
    23    38    39    1
    24    39    40    2
    25     3     4   ar
    26     4    23    1
    27    23    24    3
    28     4     5   ar
    29     5     6   ar
    30     6    18    1
    31    18    19   ar
    32    19    20   ar
    33    20    21   ar
    34    21    22   ar
    35    14    15   ar
    36    15    16   ar
    37    16     8   ar
    38    16    11    1
    39     6     1   ar
    40    22    18   ar
    41    40    32    1
    42    40    35    1
    43    12    17    1
    44    28    29    1
    45    28    30    1
@<TRIPOS>MOLECULE
*****
 40 45 0 0 0
SMALL
GASTEIGER

@<TRIPOS>ATOM
      1 C          65.4047   91.7029   12.7455 C.ar    1  UNL1        0.0400
      2 C          64.1867   90.9293   12.3357 C.ar    1  UNL1        0.0422
      3 C          63.4968   90.0373   13.3248 C.ar    1  UNL1        0.1660
      4 C          64.0248   89.9189   14.7238 C.ar    1  UNL1        0.1829
      5 N          65.2429   90.6926   15.1336 N.ar    1  UNL1       -0.2320
      6 C          65.9328   91.5846   14.1445 C.ar    1  UNL1        0.0868
      7 C          64.4918   96.8511   10.0153 C.3     1  UNL1        0.0557
      8 C          65.7528   96.0888    9.7345 C.ar    1  UNL1        0.1015
      9 N          66.8478   96.5096    8.7997 N.ar    1  UNL1       -0.1493
     10 N          67.9119   95.4528    8.8267 N.ar    1  UNL1       -0.1291
     11 C          67.4746   94.3788    9.7783 C.ar    1  UNL1        0.1811
     12 N          68.1190   93.0938   10.2063 N.ar    1  UNL1       -0.3335
     13 C          67.4291   92.2018   11.1954 C.ar    1  UNL1        0.0929
     14 C          66.0947   92.5949   11.7564 C.ar    1  UNL1        0.0999
     15 N          65.4502   93.8800   11.3284 N.ar    1  UNL1       -0.2395
     16 C          66.1401   94.7719   10.3393 C.ar    1  UNL1        0.1320
     17 H          68.9949   92.8358    9.8381 H       1  UNL1        0.1675
     18 C          67.1508   92.3582   14.5544 C.ar    1  UNL1        0.0585
     19 C          67.1585   93.6900   15.2445 C.ar    1  UNL1        0.0453
     20 C          68.5874   94.0908   15.4626 C.ar    1  UNL1        0.1798
     21 O          69.4629   93.0066   14.9073 O.2     1  UNL1       -0.4473
     22 C          68.5750   91.9359   14.3460 C.ar    1  UNL1        0.1812
     23 C          63.3349   89.0270   15.7129 C.1     1  UNL1        0.1229
     24 N          62.6450   88.1350   16.7020 N.1     1  UNL1       -0.1892
     25 O          62.2788   89.2637   12.9150 O.3     1  UNL1       -0.4718
     26 C          61.2674   89.8869   11.9992 C.3     1  UNL1        0.2211
     27 C          60.3566   89.0171   11.1846 C.3     1  UNL1        0.0995
     28 N          59.6297   87.8768   11.8339 N.3     1  UNL1       -0.3190
     29 H          59.0597   87.3964   11.1377 H       1  UNL1        0.1189
     30 H          59.0291   88.2352   12.5765 H       1  UNL1        0.1189
     31 C          60.1725   89.2873    9.7207 C.3     1  UNL1        0.0472
     32 C          60.0284   88.1448    8.7594 C.2     1  UNL1       -0.0005
     33 C          58.8543   87.8913    7.8609 C.2     1  UNL1        0.0942
     34 N          59.1333   86.6451    7.0741 N.2     1  UNL1       -0.2482
     35 C          60.4799   86.1284    7.4863 C.2     1  UNL1        0.0631
     36 C          61.2737   84.9337    7.0478 C.3     1  UNL1        0.0717
     37 C          62.6208   84.6657    7.6509 C.2     1  UNL1       -0.0198
     38 C          63.1740   85.5926    8.6925 C.2     1  UNL1       -0.0042
     39 C          62.3801   86.7874    9.1310 C.2     1  UNL1        0.0006
     40 C          61.0330   87.0553    8.5279 C.2     1  UNL1        0.0114
@<TRIPOS>BOND
     1     7     8    1
     2     8     9   ar
     3     9    10   ar
     4    10    11   ar
     5    11    12   ar
     6    12    13   ar
     7    13    14   ar
     8    14     1    1
     9     1     2   ar
    10     2     3   ar
    11     3    25    1
    12    25    26    1
    13    26    27    1
    14    27    28    1
    15    27    31    1
    16    31    32    1
    17    32    33    2
    18    33    34    1
    19    34    35    2
    20    35    36    1
    21    36    37    1
    22    37    38    2
    23    38    39    1
    24    39    40    2
    25     3     4   ar
    26     4    23    1
    27    23    24    3
    28     4     5   ar
    29     5     6   ar
    30     6    18    1
    31    18    19   ar
    32    19    20   ar
    33    20    21   ar
    34    21    22   ar
    35    14    15   ar
    36    15    16   ar
    37    16     8   ar
    38    16    11    1
    39     6     1   ar
    40    22    18   ar
    41    40    32    1
    42    40    35    1
    43    12    17    1
    44    28    29    1
    45    28    30    1
@<TRIPOS>MOLECULE
*****
 40 45 0 0 0
SMALL
GASTEIGER

@<TRIPOS>ATOM
      1 C          65.2144   91.6909   12.8551 C.ar    1  UNL1        0.0400
      2 C          63.9775   90.9443   12.4520 C.ar    1  UNL1        0.0422
      3 C          63.4203   89.8772   13.3470 C.ar    1  UNL1        0.1660
      4 C          64.1002   89.5568   14.6452 C.ar    1  UNL1        0.1829
      5 N          65.3372   90.3034   15.0482 N.ar    1  UNL1       -0.2320
      6 C          65.8942   91.3705   14.1532 C.ar    1  UNL1        0.0868
      7 C          68.8345   92.1586    8.2218 C.3     1  UNL1        0.0557
      8 C          68.2054   93.3983    8.7854 C.ar    1  UNL1        0.1015
      9 N          68.4046   94.7962    8.2795 N.ar    1  UNL1       -0.1493
     10 N          67.5890   95.7194    9.1353 N.ar    1  UNL1       -0.1291
     11 C          66.8857   94.8920   10.1701 C.ar    1  UNL1        0.1811
     12 N          65.9477   95.2596   11.2814 N.ar    1  UNL1       -0.3335
     13 C          65.3906   94.1925   12.1763 C.ar    1  UNL1        0.0929
     14 C          65.7715   92.7579   11.9601 C.ar    1  UNL1        0.0999
     15 N          66.7096   92.3904   10.8488 N.ar    1  UNL1       -0.2395
     16 C          67.2667   93.4574    9.9539 C.ar    1  UNL1        0.1320
     17 H          65.6976   96.2012   11.4233 H       1  UNL1        0.1675
     18 C          67.1313   92.1171   14.5563 C.ar    1  UNL1        0.0585
     19 C          67.2342   93.1167   15.6699 C.ar    1  UNL1        0.0453
     20 C          68.6490   93.6126   15.7184 C.ar    1  UNL1        0.1798
     21 O          69.4205   92.9195   14.6346 O.2     1  UNL1       -0.4473
     22 C          68.4825   91.9952   13.9165 C.ar    1  UNL1        0.1812
     23 C          63.5431   88.4898   15.5402 C.1     1  UNL1        0.1229
     24 N          62.9860   87.4228   16.4352 N.1     1  UNL1       -0.1892
     25 O          62.1834   89.1306   12.9439 O.3     1  UNL1       -0.4718
     26 C          61.2729   89.6982   11.8957 C.3     1  UNL1        0.2211
     27 C          60.9453   88.8949   10.6720 C.3     1  UNL1        0.0995
     28 N          60.8887   89.5622    9.3297 N.3     1  UNL1       -0.3190
     29 H          60.6544   88.8718    8.6164 H       1  UNL1        0.1189
     30 H          61.7965   89.9759    9.1172 H       1  UNL1        0.1189
     31 C          60.6744   87.4244   10.7905 C.3     1  UNL1        0.0472
     32 C          61.5804   86.4380   10.1151 C.2     1  UNL1       -0.0005
     33 C          61.8199   86.3283    8.6384 C.2     1  UNL1        0.0942
     34 N          62.7935   85.2106    8.4085 N.2     1  UNL1       -0.2482
     35 C          63.1558   84.6295    9.7431 C.2     1  UNL1        0.0631
     36 C          64.0714   83.5077   10.1342 C.3     1  UNL1        0.0717
     37 C          64.2373   83.1443   11.5801 C.2     1  UNL1       -0.0198
     38 C          63.4876   83.9029   12.6348 C.2     1  UNL1       -0.0042
     39 C          62.5719   85.0247   12.2437 C.2     1  UNL1        0.0006
     40 C          62.4060   85.3880   10.7978 C.2     1  UNL1        0.0114
@<TRIPOS>BOND
     1     7     8    1
     2     8     9   ar
     3     9    10   ar
     4    10    11   ar
     5    11    12   ar
     6    12    13   ar
     7    13    14   ar
     8    14     1    1
     9     1     2   ar
    10     2     3   ar
    11     3    25    1
    12    25    26    1
    13    26    27    1
    14    27    28    1
    15    27    31    1
    16    31    32    1
    17    32    33    2
    18    33    34    1
    19    34    35    2
    20    35    36    1
    21    36    37    1
    22    37    38    2
    23    38    39    1
    24    39    40    2
    25     3     4   ar
    26     4    23    1
    27    23    24    3
    28     4     5   ar
    29     5     6   ar
    30     6    18    1
    31    18    19   ar
    32    19    20   ar
    33    20    21   ar
    34    21    22   ar
    35    14    15   ar
    36    15    16   ar
    37    16     8   ar
    38    16    11    1
    39     6     1   ar
    40    22    18   ar
    41    40    32    1
    42    40    35    1
    43    12    17    1
    44    28    29    1
    45    28    30    1
@<TRIPOS>MOLECULE
*****
 40 45 0 0 0
SMALL
GASTEIGER

@<TRIPOS>ATOM
      1 C          65.2801   91.6456   12.8356 C.ar    1  UNL1        0.0400
      2 C          64.0861   90.8496   12.3991 C.ar    1  UNL1        0.0422
      3 C          63.5561   89.7519   13.2733 C.ar    1  UNL1        0.1660
      4 C          64.2202   89.4502   14.5840 C.ar    1  UNL1        0.1829
      5 N          65.4143   90.2463   15.0205 N.ar    1  UNL1       -0.2320
      6 C          65.9442   91.3440   14.1463 C.ar    1  UNL1        0.0868
      7 C          68.8572   92.2886    8.1899 C.3     1  UNL1        0.0557
      8 C          68.2084   93.5027    8.7858 C.ar    1  UNL1        0.1015
      9 N          68.3769   94.9154    8.3106 N.ar    1  UNL1       -0.1493
     10 N          67.5497   95.8029    9.1926 N.ar    1  UNL1       -0.1291
     11 C          66.8700   94.9387   10.2130 C.ar    1  UNL1        0.1811
     12 N          65.9329   95.2627   11.3386 N.ar    1  UNL1       -0.3335
     13 C          65.4030   94.1650   12.2128 C.ar    1  UNL1        0.0929
     14 C          65.8101   92.7433   11.9614 C.ar    1  UNL1        0.0999
     15 N          66.7471   92.4194   10.8358 N.ar    1  UNL1       -0.2395
     16 C          67.2770   93.5171    9.9616 C.ar    1  UNL1        0.1320
     17 H          65.6658   96.1957   11.5037 H       1  UNL1        0.1675
     18 C          67.1383   92.1401   14.5828 C.ar    1  UNL1        0.0585
     19 C          67.1461   93.2176   15.6262 C.ar    1  UNL1        0.0453
     20 C          68.5469   93.7418   15.7407 C.ar    1  UNL1        0.1798
     21 O          69.4048   92.9883   14.7680 O.2     1  UNL1       -0.4473
     22 C          68.5343   91.9983   14.0524 C.ar    1  UNL1        0.1812
     23 C          63.6903   88.3526   15.4583 C.1     1  UNL1        0.1229
     24 N          63.1604   87.2549   16.3325 N.1     1  UNL1       -0.1892
     25 O          62.3621   88.9559   12.8368 O.3     1  UNL1       -0.4718
     26 C          62.4302   88.1237   11.5907 C.3     1  UNL1        0.2211
     27 C          62.3676   86.6279   11.6834 C.3     1  UNL1        0.0995
     28 N          61.3640   85.8672   10.8683 N.3     1  UNL1       -0.3190
     29 H          61.4617   84.8690   11.0539 H       1  UNL1        0.1189
     30 H          61.5253   86.0461    9.8771 H       1  UNL1        0.1189
     31 C          63.3085   85.8926   12.5912 C.3     1  UNL1        0.0472
     32 C          62.9302   84.5454   13.1315 C.2     1  UNL1       -0.0005
     33 C          62.4025   84.2636   14.5071 C.2     1  UNL1        0.0942
     34 N          62.1593   82.7875   14.6168 N.2     1  UNL1       -0.2482
     35 C          62.5366   82.1570   13.3090 C.2     1  UNL1        0.0631
     36 C          62.5079   80.7341   12.8355 C.3     1  UNL1        0.0717
     37 C          62.9557   80.3975   11.4439 C.2     1  UNL1       -0.0198
     38 C          63.4321   81.4840   10.5260 C.2     1  UNL1       -0.0042
     39 C          63.4608   82.9070   10.9996 C.2     1  UNL1        0.0006
     40 C          63.0130   83.2435   12.3911 C.2     1  UNL1        0.0114
@<TRIPOS>BOND
     1     7     8    1
     2     8     9   ar
     3     9    10   ar
     4    10    11   ar
     5    11    12   ar
     6    12    13   ar
     7    13    14   ar
     8    14     1    1
     9     1     2   ar
    10     2     3   ar
    11     3    25    1
    12    25    26    1
    13    26    27    1
    14    27    28    1
    15    27    31    1
    16    31    32    1
    17    32    33    2
    18    33    34    1
    19    34    35    2
    20    35    36    1
    21    36    37    1
    22    37    38    2
    23    38    39    1
    24    39    40    2
    25     3     4   ar
    26     4    23    1
    27    23    24    3
    28     4     5   ar
    29     5     6   ar
    30     6    18    1
    31    18    19   ar
    32    19    20   ar
    33    20    21   ar
    34    21    22   ar
    35    14    15   ar
    36    15    16   ar
    37    16     8   ar
    38    16    11    1
    39     6     1   ar
    40    22    18   ar
    41    40    32    1
    42    40    35    1
    43    12    17    1
    44    28    29    1
    45    28    30    1
@<TRIPOS>MOLECULE
*****
 40 45 0 0 0
SMALL
GASTEIGER

@<TRIPOS>ATOM
      1 C          63.9145   91.0195   12.5466 C.ar    1  UNL1        0.0400
      2 C          62.8187   90.0352   12.8303 C.ar    1  UNL1        0.0422
      3 C          61.9059   89.5903   11.7262 C.ar    1  UNL1        0.1660
      4 C          62.0888   90.1297   10.3386 C.ar    1  UNL1        0.1829
      5 N          63.1846   91.1141   10.0550 N.ar    1  UNL1       -0.2320
      6 C          64.0974   91.5589   11.1590 C.ar    1  UNL1        0.0868
      7 C          69.6717   91.9225   13.4576 C.3     1  UNL1        0.0557
      8 C          68.7068   92.1717   14.5787 C.ar    1  UNL1        0.1015
      9 N          69.0606   92.6432   15.9580 N.ar    1  UNL1       -0.1493
     10 N          67.7912   92.7559   16.7491 N.ar    1  UNL1       -0.1291
     11 C          66.6529   92.3541   15.8587 C.ar    1  UNL1        0.1811
     12 N          65.1742   92.2703   16.0961 N.ar    1  UNL1       -0.3335
     13 C          64.2614   91.8255   14.9921 C.ar    1  UNL1        0.0929
     14 C          64.8273   91.4644   13.6507 C.ar    1  UNL1        0.0999
     15 N          66.3060   91.5481   13.4133 N.ar    1  UNL1       -0.2395
     16 C          67.2188   91.9930   14.5173 C.ar    1  UNL1        0.1320
     17 H          64.8027   92.5073   16.9765 H       1  UNL1        0.1675
     18 C          65.1932   92.5433   10.8754 C.ar    1  UNL1        0.0585
     19 C          65.1009   94.0329   11.0254 C.ar    1  UNL1        0.0453
     20 C          66.4243   94.6210   10.6348 C.ar    1  UNL1        0.1798
     21 O          67.3347   93.4948   10.2433 O.2     1  UNL1       -0.4473
     22 C          66.5738   92.2107   10.3921 C.ar    1  UNL1        0.1812
     23 C          61.1760   89.6849    9.2346 C.1     1  UNL1        0.1229
     24 N          60.2632   89.2401    8.1305 N.1     1  UNL1       -0.1892
     25 O          60.8101   88.6060   12.0098 O.3     1  UNL1       -0.4718
     26 C          60.6970   87.3535   11.1923 C.3     1  UNL1        0.2211
     27 C          61.9356   86.6359   10.7442 C.3     1  UNL1        0.0995
     28 N          62.3797   86.7275    9.3143 N.3     1  UNL1       -0.3190
     29 H          63.2329   86.1831    9.1877 H       1  UNL1        0.1189
     30 H          62.5601   87.7028    9.0762 H       1  UNL1        0.1189
     31 C          62.7302   85.8266   11.7259 C.3     1  UNL1        0.0472
     32 C          63.0133   84.3796   11.4498 C.2     1  UNL1       -0.0005
     33 C          63.6339   83.8251   10.2019 C.2     1  UNL1        0.0942
     34 N          63.7296   82.3359   10.3541 N.2     1  UNL1       -0.2482
     35 C          63.1682   81.9700   11.6962 C.2     1  UNL1        0.0631
     36 C          63.0029   80.6500   12.3890 C.3     1  UNL1        0.0717
     37 C          62.3949   80.5930   13.7591 C.2     1  UNL1       -0.0198
     38 C          61.9521   81.8561   14.4362 C.2     1  UNL1       -0.0042
     39 C          62.1174   83.1761   13.7434 C.2     1  UNL1        0.0006
     40 C          62.7255   83.2331   12.3733 C.2     1  UNL1        0.0114
@<TRIPOS>BOND
     1     7     8    1
     2     8     9   ar
     3     9    10   ar
     4    10    11   ar
     5    11    12   ar
     6    12    13   ar
     7    13    14   ar
     8    14     1    1
     9     1     2   ar
    10     2     3   ar
    11     3    25    1
    12    25    26    1
    13    26    27    1
    14    27    28    1
    15    27    31    1
    16    31    32    1
    17    32    33    2
    18    33    34    1
    19    34    35    2
    20    35    36    1
    21    36    37    1
    22    37    38    2
    23    38    39    1
    24    39    40    2
    25     3     4   ar
    26     4    23    1
    27    23    24    3
    28     4     5   ar
    29     5     6   ar
    30     6    18    1
    31    18    19   ar
    32    19    20   ar
    33    20    21   ar
    34    21    22   ar
    35    14    15   ar
    36    15    16   ar
    37    16     8   ar
    38    16    11    1
    39     6     1   ar
    40    22    18   ar
    41    40    32    1
    42    40    35    1
    43    12    17    1
    44    28    29    1
    45    28    30    1
