@<TRIPOS>MOLECULE
*****
 29 31 0 0 0
SMALL
GASTEIGER

@<TRIPOS>ATOM
      1 C          62.5999   86.3886   10.9260 C.3     1  UNL1        0.0564
      2 C          64.2710   89.9985   14.2691 C.3     1  UNL1        0.0310
      3 C          63.9859   88.5623   13.9433 C.ar    1  UNL1       -0.0221
      4 C          64.2513   87.4949   14.9631 C.ar    1  UNL1       -0.0043
      5 C          63.9663   86.0588   14.6373 C.ar    1  UNL1       -0.0006
      6 C          63.4158   85.6900   13.2916 C.ar    1  UNL1       -0.0037
      7 C          63.1504   86.7574   12.2717 C.ar    1  UNL1       -0.0155
      8 C          63.4355   88.1935   12.5976 C.ar    1  UNL1       -0.0079
      9 C          61.8760   87.7008   10.8626 C.ar    1  UNL1       -0.0152
     10 C          60.5934   87.8871   11.6178 C.ar    1  UNL1       -0.0037
     11 C          59.8695   89.1993   11.5544 C.ar    1  UNL1       -0.0003
     12 C          60.4281   90.3252   10.7358 C.ar    1  UNL1       -0.0000
     13 C          61.7106   90.1390    9.9806 C.ar    1  UNL1       -0.0003
     14 C          62.4346   88.8268   10.0440 C.ar    1  UNL1       -0.0037
     15 C          62.0494   86.0199    9.5802 C.ar    1  UNL1       -0.0152
     16 C          60.6134   86.3051    9.2535 C.ar    1  UNL1       -0.0037
     17 C          60.0629   85.9364    7.9078 C.ar    1  UNL1       -0.0003
     18 C          60.9484   85.2825    6.8888 C.ar    1  UNL1       -0.0000
     19 C          62.3843   84.9974    7.2154 C.ar    1  UNL1       -0.0003
     20 C          62.9349   85.3661    8.5612 C.ar    1  UNL1       -0.0037
     21 C          63.3238   85.0764   10.9893 C.3     1  UNL1        0.0140
     22 C          62.5850   83.8303   11.3783 C.3     1  UNL1        0.0222
     23 CA         63.3432   82.6265   11.8540 C.3     1  UNL1        0.0879
     24 N          64.7950   82.4706   11.5107 N.3     1  UNL1       -0.3179
     25 H1         65.1002   83.2687   10.9537 H       1  UNL1        0.1191
     26 H2         64.9277   81.6122   10.9760 H       1  UNL1        0.1191
     27 C          62.6494   81.5786   12.6729 C.2     1  UNL1        0.0644
     28 O          61.9289   81.9650   13.9306 O.co2   1  UNL1       -0.5478
     29 OXT        62.6762   80.1445   12.2343 O.co2   1  UNL1       -0.5478
@<TRIPOS>UNITY_ATOM_ATTR
28 1
charge -1
@<TRIPOS>BOND
     1     2     3    1
     2     3     4   ar
     3     4     5   ar
     4     5     6   ar
     5     6     7   ar
     6     7     1    1
     7     1    21    1
     8    21    22    1
     9    22    23    1
    10    23    24    1
    11    23    27    1
    12    27    28   ar
    13    27    29   ar
    14     1     9    1
    15     9    10   ar
    16    10    11   ar
    17    11    12   ar
    18    12    13   ar
    19    13    14   ar
    20     1    15    1
    21    15    16   ar
    22    16    17   ar
    23    17    18   ar
    24    18    19   ar
    25    19    20   ar
    26     7     8   ar
    27     8     3   ar
    28    14     9   ar
    29    20    15   ar
    30    24    25    1
    31    24    26    1
@<TRIPOS>MOLECULE
*****
 29 31 0 0 0
SMALL
GASTEIGER

@<TRIPOS>ATOM
      1 C          62.5715   86.4751   10.9222 C.3     1  UNL1        0.0564
      2 C          64.1978   85.1801   15.6843 C.3     1  UNL1        0.0310
      3 C          63.9351   86.2251   14.6408 C.ar    1  UNL1       -0.0221
      4 C          64.2229   87.6675   14.9348 C.ar    1  UNL1       -0.0043
      5 C          63.9602   88.7125   13.8913 C.ar    1  UNL1       -0.0006
      6 C          63.4097   88.3151   12.5538 C.ar    1  UNL1       -0.0037
      7 C          63.1220   86.8727   12.2598 C.ar    1  UNL1       -0.0155
      8 C          63.3847   85.8276   13.3033 C.ar    1  UNL1       -0.0079
      9 C          61.8330   87.7781   10.8390 C.ar    1  UNL1       -0.0152
     10 C          62.3761   88.8956    9.9985 C.ar    1  UNL1       -0.0037
     11 C          61.6376   90.1986    9.9153 C.ar    1  UNL1       -0.0003
     12 C          60.3560   90.3840   10.6725 C.ar    1  UNL1       -0.0000
     13 C          59.8130   89.2665   11.5128 C.ar    1  UNL1       -0.0003
     14 C          60.5515   87.9635   11.5961 C.ar    1  UNL1       -0.0037
     15 C          62.0211   86.0777    9.5847 C.ar    1  UNL1       -0.0152
     16 C          62.9094   85.4122    8.5757 C.ar    1  UNL1       -0.0037
     17 C          62.3589   85.0147    7.2382 C.ar    1  UNL1       -0.0003
     18 C          60.9201   85.2828    6.9096 C.ar    1  UNL1       -0.0000
     19 C          60.0318   85.9483    7.9185 C.ar    1  UNL1       -0.0003
     20 C          60.5822   86.3457    9.2561 C.ar    1  UNL1       -0.0037
     21 C          63.3100   85.1722   11.0054 C.3     1  UNL1        0.0140
     22 C          62.5797   83.9193   11.3887 C.3     1  UNL1        0.0222
     23 CA         63.3481   82.7055   11.8203 C.3     1  UNL1        0.0879
     24 N          64.7750   82.5298   11.3924 N.3     1  UNL1       -0.3179
     25 H1         65.0577   83.3235   10.8175 H       1  UNL1        0.1191
     26 H2         64.8644   81.6695   10.8518 H       1  UNL1        0.1191
     27 C          62.6896   81.6674   12.6798 C.2     1  UNL1        0.0644
     28 O          62.7028   80.2275   12.2596 O.co2   1  UNL1       -0.5478
     29 OXT        62.0179   82.0692   13.9593 O.co2   1  UNL1       -0.5478
@<TRIPOS>UNITY_ATOM_ATTR
28 1
charge -1
@<TRIPOS>BOND
     1     2     3    1
     2     3     4   ar
     3     4     5   ar
     4     5     6   ar
     5     6     7   ar
     6     7     1    1
     7     1    21    1
     8    21    22    1
     9    22    23    1
    10    23    24    1
    11    23    27    1
    12    27    28   ar
    13    27    29   ar
    14     1     9    1
    15     9    10   ar
    16    10    11   ar
    17    11    12   ar
    18    12    13   ar
    19    13    14   ar
    20     1    15    1
    21    15    16   ar
    22    16    17   ar
    23    17    18   ar
    24    18    19   ar
    25    19    20   ar
    26     7     8   ar
    27     8     3   ar
    28    14     9   ar
    29    20    15   ar
    30    24    25    1
    31    24    26    1
@<TRIPOS>MOLECULE
*****
 29 31 0 0 0
SMALL
GASTEIGER

@<TRIPOS>ATOM
      1 C          65.1172   91.8204   13.2495 C.3     1  UNL1        0.0564
      2 C          64.4477   86.9184   14.8376 C.3     1  UNL1        0.0310
      3 C          64.2376   88.3897   15.0402 C.ar    1  UNL1       -0.0221
      4 C          63.4826   88.8814   16.2395 C.ar    1  UNL1       -0.0043
      5 C          63.2725   90.3527   16.4421 C.ar    1  UNL1       -0.0006
      6 C          63.8173   91.3324   15.4455 C.ar    1  UNL1       -0.0037
      7 C          64.5723   90.8407   14.2463 C.ar    1  UNL1       -0.0155
      8 C          64.7824   89.3694   14.0436 C.ar    1  UNL1       -0.0079
      9 C          66.3280   92.0236   14.1113 C.ar    1  UNL1       -0.0152
     10 C          67.6890   91.6727   13.5872 C.ar    1  UNL1       -0.0037
     11 C          68.8998   91.8759   14.4489 C.ar    1  UNL1       -0.0003
     12 C          68.7497   92.4299   15.8347 C.ar    1  UNL1       -0.0000
     13 C          67.3888   92.7808   16.3588 C.ar    1  UNL1       -0.0003
     14 C          66.1779   92.5776   15.4971 C.ar    1  UNL1       -0.0037
     15 C          65.6621   92.8001   12.2529 C.ar    1  UNL1       -0.0152
     16 C          65.9278   92.3654   10.8420 C.ar    1  UNL1       -0.0037
     17 C          66.4727   93.3451    9.8454 C.ar    1  UNL1       -0.0003
     18 C          66.7519   94.7594   10.2596 C.ar    1  UNL1       -0.0000
     19 C          66.4863   95.1942   11.6704 C.ar    1  UNL1       -0.0003
     20 C          65.9413   94.2145   12.6671 C.ar    1  UNL1       -0.0037
     21 C          63.9064   91.6173   12.3878 C.3     1  UNL1        0.0140
     22 C          63.4687   90.2293   12.0245 C.3     1  UNL1        0.0222
     23 CA         62.6827   89.9955   10.7684 C.3     1  UNL1        0.0879
     24 N          62.5911   91.0733    9.7294 N.3     1  UNL1       -0.3179
     25 H1         63.1183   91.8898   10.0390 H       1  UNL1        0.1191
     26 H2         61.6138   91.3315    9.5925 H       1  UNL1        0.1191
     27 C          61.9883   88.6837   10.5516 C.2     1  UNL1        0.0644
     28 O          61.0746   88.5042    9.3755 O.co2   1  UNL1       -0.5478
     29 OXT        62.2076   87.5514   11.5106 O.co2   1  UNL1       -0.5478
@<TRIPOS>UNITY_ATOM_ATTR
28 1
charge -1
@<TRIPOS>BOND
     1     2     3    1
     2     3     4   ar
     3     4     5   ar
     4     5     6   ar
     5     6     7   ar
     6     7     1    1
     7     1    21    1
     8    21    22    1
     9    22    23    1
    10    23    24    1
    11    23    27    1
    12    27    28   ar
    13    27    29   ar
    14     1     9    1
    15     9    10   ar
    16    10    11   ar
    17    11    12   ar
    18    12    13   ar
    19    13    14   ar
    20     1    15    1
    21    15    16   ar
    22    16    17   ar
    23    17    18   ar
    24    18    19   ar
    25    19    20   ar
    26     7     8   ar
    27     8     3   ar
    28    14     9   ar
    29    20    15   ar
    30    24    25    1
    31    24    26    1
@<TRIPOS>MOLECULE
*****
 29 31 0 0 0
SMALL
GASTEIGER

@<TRIPOS>ATOM
      1 C          65.0092   91.4935   13.1772 C.3     1  UNL1        0.0564
      2 C          60.2318   89.5741   12.4755 C.3     1  UNL1        0.0310
      3 C          61.4861   90.1746   11.9131 C.ar    1  UNL1       -0.0221
      4 C          61.6059   90.4158   10.4375 C.ar    1  UNL1       -0.0043
      5 C          62.8601   91.0163    9.8751 C.ar    1  UNL1       -0.0006
      6 C          63.9945   91.3756   10.7883 C.ar    1  UNL1       -0.0037
      7 C          63.8748   91.1343   12.2639 C.ar    1  UNL1       -0.0155
      8 C          62.6205   90.5338   12.8263 C.ar    1  UNL1       -0.0079
      9 C          64.4868   90.5329   14.2039 C.ar    1  UNL1       -0.0152
     10 C          63.7853   91.0488   15.4253 C.ar    1  UNL1       -0.0037
     11 C          63.2628   90.0882   16.4521 C.ar    1  UNL1       -0.0003
     12 C          63.4418   88.6117   16.2575 C.ar    1  UNL1       -0.0000
     13 C          64.1432   88.0958   15.0362 C.ar    1  UNL1       -0.0003
     14 C          64.6658   89.0564   14.0093 C.ar    1  UNL1       -0.0037
     15 C          66.1436   91.8526   14.0904 C.ar    1  UNL1       -0.0152
     16 C          65.8635   92.4834   15.4222 C.ar    1  UNL1       -0.0037
     17 C          66.9979   92.8426   16.3355 C.ar    1  UNL1       -0.0003
     18 C          68.4125   92.5710   15.9170 C.ar    1  UNL1       -0.0000
     19 C          68.6927   91.9402   14.5853 C.ar    1  UNL1       -0.0003
     20 C          67.5582   91.5810   13.6719 C.ar    1  UNL1       -0.0037
     21 C          65.5317   92.4541   12.1504 C.3     1  UNL1        0.0140
     22 C          65.9884   93.8210   12.5660 C.3     1  UNL1        0.0222
     23 CA         66.2396   94.8754   11.5290 C.3     1  UNL1        0.0879
     24 N          65.7907   96.2862   11.7697 N.3     1  UNL1       -0.3179
     25 H1         65.3368   96.3477   12.6811 H       1  UNL1        0.1191
     26 H2         65.1312   96.5620   11.0421 H       1  UNL1        0.1191
     27 C          66.9398   94.5188   10.2512 C.2     1  UNL1        0.0644
     28 O          68.0780   93.5419   10.2671 O.co2   1  UNL1       -0.5478
     29 OXT        66.5018   95.1391    8.9577 O.co2   1  UNL1       -0.5478
@<TRIPOS>UNITY_ATOM_ATTR
28 1
charge -1
@<TRIPOS>BOND
     1     2     3    1
     2     3     4   ar
     3     4     5   ar
     4     5     6   ar
     5     6     7   ar
     6     7     1    1
     7     1    21    1
     8    21    22    1
     9    22    23    1
    10    23    24    1
    11    23    27    1
    12    27    28   ar
    13    27    29   ar
    14     1     9    1
    15     9    10   ar
    16    10    11   ar
    17    11    12   ar
    18    12    13   ar
    19    13    14   ar
    20     1    15    1
    21    15    16   ar
    22    16    17   ar
    23    17    18   ar
    24    18    19   ar
    25    19    20   ar
    26     7     8   ar
    27     8     3   ar
    28    14     9   ar
    29    20    15   ar
    30    24    25    1
    31    24    26    1
@<TRIPOS>MOLECULE
*****
 29 31 0 0 0
SMALL
GASTEIGER

@<TRIPOS>ATOM
      1 C          65.3429   91.6597   12.8383 C.3     1  UNL1        0.0564
      2 C          69.0370   92.3835    9.2565 C.3     1  UNL1        0.0310
      3 C          67.8106   92.8650    9.9734 C.ar    1  UNL1       -0.0221
      4 C          67.2047   94.1899    9.6163 C.ar    1  UNL1       -0.0043
      5 C          65.9783   94.6714   10.3332 C.ar    1  UNL1       -0.0006
      6 C          65.3576   93.8281   11.4072 C.ar    1  UNL1       -0.0037
      7 C          65.9635   92.5032   11.7643 C.ar    1  UNL1       -0.0155
      8 C          67.1900   92.0217   11.0474 C.ar    1  UNL1       -0.0079
      9 C          66.3406   92.1852   13.8274 C.ar    1  UNL1       -0.0152
     10 C          66.4631   93.6626   14.0565 C.ar    1  UNL1       -0.0037
     11 C          67.4609   94.1880   15.0456 C.ar    1  UNL1       -0.0003
     12 C          68.3362   93.2361   15.8056 C.ar    1  UNL1       -0.0000
     13 C          68.2138   91.7588   15.5766 C.ar    1  UNL1       -0.0003
     14 C          67.2160   91.2333   14.5875 C.ar    1  UNL1       -0.0037
     15 C          64.7223   90.8164   13.9124 C.ar    1  UNL1       -0.0152
     16 C          64.2210   91.4566   15.1729 C.ar    1  UNL1       -0.0037
     17 C          63.6004   90.6132   16.2469 C.ar    1  UNL1       -0.0003
     18 C          63.4812   89.1296   16.0605 C.ar    1  UNL1       -0.0000
     19 C          63.9824   88.4894   14.8000 C.ar    1  UNL1       -0.0003
     20 C          64.6030   89.3328   13.7259 C.ar    1  UNL1       -0.0037
     21 C          64.3451   91.1343   11.8493 C.3     1  UNL1        0.0140
     22 C          62.8829   91.1395   12.1841 C.3     1  UNL1        0.0222
     23 CA         61.8740   90.7517   11.1440 C.3     1  UNL1        0.0879
     24 N          62.2111   90.8785    9.6879 N.3     1  UNL1       -0.3179
     25 H1         63.1593   91.2413    9.5888 H       1  UNL1        0.1191
     26 H2         61.5540   91.5180    9.2412 H       1  UNL1        0.1191
     27 C          60.5279   90.2370   11.5601 C.2     1  UNL1        0.0644
     28 O          59.2931   91.0305   11.2506 O.co2   1  UNL1       -0.5478
     29 OXT        60.4166   88.9289   12.2857 O.co2   1  UNL1       -0.5478
@<TRIPOS>UNITY_ATOM_ATTR
28 1
charge -1
@<TRIPOS>BOND
     1     2     3    1
     2     3     4   ar
     3     4     5   ar
     4     5     6   ar
     5     6     7   ar
     6     7     1    1
     7     1    21    1
     8    21    22    1
     9    22    23    1
    10    23    24    1
    11    23    27    1
    12    27    28   ar
    13    27    29   ar
    14     1     9    1
    15     9    10   ar
    16    10    11   ar
    17    11    12   ar
    18    12    13   ar
    19    13    14   ar
    20     1    15    1
    21    15    16   ar
    22    16    17   ar
    23    17    18   ar
    24    18    19   ar
    25    19    20   ar
    26     7     8   ar
    27     8     3   ar
    28    14     9   ar
    29    20    15   ar
    30    24    25    1
    31    24    26    1
@<TRIPOS>MOLECULE
*****
 29 31 0 0 0
SMALL
GASTEIGER

@<TRIPOS>ATOM
      1 C          62.4294   86.5619   10.9279 C.3     1  UNL1        0.0564
      2 C          62.6844   84.4881    6.1704 C.3     1  UNL1        0.0310
      3 C          61.9017   85.1854    7.2433 C.ar    1  UNL1       -0.0221
      4 C          60.4637   85.5430    7.0103 C.ar    1  UNL1       -0.0043
      5 C          59.6810   86.2403    8.0832 C.ar    1  UNL1       -0.0006
      6 C          60.3362   86.5799    9.3891 C.ar    1  UNL1       -0.0037
      7 C          61.7741   86.2223    9.6220 C.ar    1  UNL1       -0.0155
      8 C          62.5569   85.5250    8.5491 C.ar    1  UNL1       -0.0079
      9 C          61.7376   87.8928   10.9289 C.ar    1  UNL1       -0.0152
     10 C          60.4918   88.0899   11.7409 C.ar    1  UNL1       -0.0037
     11 C          59.7999   89.4208   11.7419 C.ar    1  UNL1       -0.0003
     12 C          60.3538   90.5546   10.9309 C.ar    1  UNL1       -0.0000
     13 C          61.5995   90.3575   10.1190 C.ar    1  UNL1       -0.0003
     14 C          62.2914   89.0266   10.1179 C.ar    1  UNL1       -0.0037
     15 C          63.0846   86.9015   12.2338 C.ar    1  UNL1       -0.0152
     16 C          63.3933   88.3308   12.5687 C.ar    1  UNL1       -0.0037
     17 C          64.0485   88.6704   13.8746 C.ar    1  UNL1       -0.0003
     18 C          64.3951   87.5809   14.8455 C.ar    1  UNL1       -0.0000
     19 C          64.0865   86.1517   14.5107 C.ar    1  UNL1       -0.0003
     20 C          63.4312   85.8120   13.2048 C.ar    1  UNL1       -0.0037
     21 C          63.1212   85.2310   10.9270 C.3     1  UNL1        0.0140
     22 C          62.3739   83.9969   11.3376 C.3     1  UNL1        0.0222
     23 CA         63.1018   82.6936   11.4849 C.3     1  UNL1        0.0879
     24 N          64.2842   82.3921   10.6127 N.3     1  UNL1       -0.3179
     25 H1         64.4511   83.1770    9.9830 H       1  UNL1        0.1191
     26 H2         64.0979   81.5514   10.0660 H       1  UNL1        0.1191
     27 C          62.6471   81.6918   12.5045 C.2     1  UNL1        0.0644
     28 O          62.1013   82.1573   13.8219 O.co2   1  UNL1       -0.5478
     29 OXT        62.7381   80.2245   12.2068 O.co2   1  UNL1       -0.5478
@<TRIPOS>UNITY_ATOM_ATTR
28 1
charge -1
@<TRIPOS>BOND
     1     2     3    1
     2     3     4   ar
     3     4     5   ar
     4     5     6   ar
     5     6     7   ar
     6     7     1    1
     7     1    21    1
     8    21    22    1
     9    22    23    1
    10    23    24    1
    11    23    27    1
    12    27    28   ar
    13    27    29   ar
    14     1     9    1
    15     9    10   ar
    16    10    11   ar
    17    11    12   ar
    18    12    13   ar
    19    13    14   ar
    20     1    15    1
    21    15    16   ar
    22    16    17   ar
    23    17    18   ar
    24    18    19   ar
    25    19    20   ar
    26     7     8   ar
    27     8     3   ar
    28    14     9   ar
    29    20    15   ar
    30    24    25    1
    31    24    26    1
@<TRIPOS>MOLECULE
*****
 29 31 0 0 0
SMALL
GASTEIGER

@<TRIPOS>ATOM
      1 C          62.2364   85.8877   11.0726 C.3     1  UNL1        0.0564
      2 C          61.8078   81.2213   13.3179 C.3     1  UNL1        0.0310
      3 C          62.4726   82.1299   12.3267 C.ar    1  UNL1       -0.0221
      4 C          63.5881   81.6137   11.4668 C.ar    1  UNL1       -0.0043
      5 C          64.2529   82.5222   10.4756 C.ar    1  UNL1       -0.0006
      6 C          63.8024   83.9469   10.3442 C.ar    1  UNL1       -0.0037
      7 C          62.6870   84.4630   11.2040 C.ar    1  UNL1       -0.0155
      8 C          62.0221   83.5545   12.1953 C.ar    1  UNL1       -0.0079
      9 C          61.9756   85.6705    9.6116 C.ar    1  UNL1       -0.0152
     10 C          63.0813   85.1988    8.7144 C.ar    1  UNL1       -0.0037
     11 C          62.8206   84.9816    7.2533 C.ar    1  UNL1       -0.0003
     12 C          61.4541   85.2360    6.6894 C.ar    1  UNL1       -0.0000
     13 C          60.3484   85.7076    7.5865 C.ar    1  UNL1       -0.0003
     14 C          60.6091   85.9249    9.0477 C.ar    1  UNL1       -0.0037
     15 C          61.7858   87.3124   10.9412 C.ar    1  UNL1       -0.0152
     16 C          62.6767   88.3230   10.2817 C.ar    1  UNL1       -0.0037
     17 C          62.2261   89.7477   10.1503 C.ar    1  UNL1       -0.0003
     18 C          60.8846   90.1618   10.6784 C.ar    1  UNL1       -0.0000
     19 C          59.9937   89.1512   11.3379 C.ar    1  UNL1       -0.0003
     20 C          60.4443   87.7265   11.4693 C.ar    1  UNL1       -0.0037
     21 C          62.4971   86.1050   12.5337 C.3     1  UNL1        0.0140
     22 C          63.9046   86.1063   13.0523 C.3     1  UNL1        0.0222
     23 CA         64.2647   85.2728   14.2464 C.3     1  UNL1        0.0879
     24 N          65.5493   84.4986   14.2608 N.3     1  UNL1       -0.3179
     25 H1         66.0494   84.6534   13.3855 H       1  UNL1        0.1191
     26 H2         65.3460   83.5045   14.3650 H       1  UNL1        0.1191
     27 C          63.3401   85.2138   15.4261 C.2     1  UNL1        0.0644
     28 O          62.5816   83.9539   15.7222 O.co2   1  UNL1       -0.5478
     29 OXT        63.1740   86.4144   16.3097 O.co2   1  UNL1       -0.5478
@<TRIPOS>UNITY_ATOM_ATTR
28 1
charge -1
@<TRIPOS>BOND
     1     2     3    1
     2     3     4   ar
     3     4     5   ar
     4     5     6   ar
     5     6     7   ar
     6     7     1    1
     7     1    21    1
     8    21    22    1
     9    22    23    1
    10    23    24    1
    11    23    27    1
    12    27    28   ar
    13    27    29   ar
    14     1     9    1
    15     9    10   ar
    16    10    11   ar
    17    11    12   ar
    18    12    13   ar
    19    13    14   ar
    20     1    15    1
    21    15    16   ar
    22    16    17   ar
    23    17    18   ar
    24    18    19   ar
    25    19    20   ar
    26     7     8   ar
    27     8     3   ar
    28    14     9   ar
    29    20    15   ar
    30    24    25    1
    31    24    26    1
@<TRIPOS>MOLECULE
*****
 29 31 0 0 0
SMALL
GASTEIGER

@<TRIPOS>ATOM
      1 C          62.2685   85.8817   11.0613 C.3     1  UNL1        0.0564
      2 C          63.1275   90.9128   10.0868 C.3     1  UNL1        0.0310
      3 C          62.2005   89.8107   10.5064 C.ar    1  UNL1       -0.0221
      4 C          60.7760   90.1221   10.8583 C.ar    1  UNL1       -0.0043
      5 C          59.8490   89.0200   11.2779 C.ar    1  UNL1       -0.0006
      6 C          60.3465   87.6066   11.3456 C.ar    1  UNL1       -0.0037
      7 C          61.7709   87.2952   10.9936 C.ar    1  UNL1       -0.0155
      8 C          62.6980   88.3973   10.5740 C.ar    1  UNL1       -0.0079
      9 C          61.9496   85.6999    9.6069 C.ar    1  UNL1       -0.0152
     10 C          60.5755   86.0159    9.0951 C.ar    1  UNL1       -0.0037
     11 C          60.2566   85.8342    7.6408 C.ar    1  UNL1       -0.0003
     12 C          61.3119   85.3363    6.6981 C.ar    1  UNL1       -0.0000
     13 C          62.6860   85.0202    7.2098 C.ar    1  UNL1       -0.0003
     14 C          63.0049   85.2020    8.6643 C.ar    1  UNL1       -0.0037
     15 C          62.7660   84.4682   11.1289 C.ar    1  UNL1       -0.0152
     16 C          62.0007   83.4402   11.9084 C.ar    1  UNL1       -0.0037
     17 C          62.4982   82.0268   11.9760 C.ar    1  UNL1       -0.0003
     18 C          63.7610   81.6412   11.2642 C.ar    1  UNL1       -0.0000
     19 C          64.5263   82.6692   10.4847 C.ar    1  UNL1       -0.0003
     20 C          64.0288   84.0827   10.4171 C.ar    1  UNL1       -0.0037
     21 C          62.5873   86.0635   12.5157 C.3     1  UNL1        0.0140
     22 C          63.9213   85.6340   13.0504 C.3     1  UNL1        0.0222
     23 CA         64.0640   85.2568   14.4952 C.3     1  UNL1        0.0879
     24 N          65.2526   85.7281   15.2796 N.3     1  UNL1       -0.3179
     25 H1         65.8563   86.2886   14.6781 H       1  UNL1        0.1191
     26 H2         65.7723   84.9219   15.6266 H       1  UNL1        0.1191
     27 C          63.0182   84.4083   15.1557 C.2     1  UNL1        0.0644
     28 O          63.2423   82.9342   15.3202 O.co2   1  UNL1       -0.5478
     29 OXT        61.7482   85.0337   15.6515 O.co2   1  UNL1       -0.5478
@<TRIPOS>UNITY_ATOM_ATTR
28 1
charge -1
@<TRIPOS>BOND
     1     2     3    1
     2     3     4   ar
     3     4     5   ar
     4     5     6   ar
     5     6     7   ar
     6     7     1    1
     7     1    21    1
     8    21    22    1
     9    22    23    1
    10    23    24    1
    11    23    27    1
    12    27    28   ar
    13    27    29   ar
    14     1     9    1
    15     9    10   ar
    16    10    11   ar
    17    11    12   ar
    18    12    13   ar
    19    13    14   ar
    20     1    15    1
    21    15    16   ar
    22    16    17   ar
    23    17    18   ar
    24    18    19   ar
    25    19    20   ar
    26     7     8   ar
    27     8     3   ar
    28    14     9   ar
    29    20    15   ar
    30    24    25    1
    31    24    26    1
@<TRIPOS>MOLECULE
*****
 29 31 0 0 0
SMALL
GASTEIGER

@<TRIPOS>ATOM
      1 C          62.5719   85.6419   11.5515 C.3     1  UNL1        0.0564
      2 C          58.9430   86.7548    8.0029 C.3     1  UNL1        0.0310
      3 C          60.2957   86.2073    8.3501 C.ar    1  UNL1       -0.0221
      4 C          61.1866   85.6690    7.2701 C.ar    1  UNL1       -0.0043
      5 C          62.5393   85.1215    7.6173 C.ar    1  UNL1       -0.0006
      6 C          63.0011   85.1125    9.0444 C.ar    1  UNL1       -0.0037
      7 C          62.1101   85.6509   10.1243 C.ar    1  UNL1       -0.0155
      8 C          60.7574   86.1983    9.7772 C.ar    1  UNL1       -0.0079
      9 C          63.0092   84.2150   11.4009 C.ar    1  UNL1       -0.0152
     10 C          62.0589   83.1009   11.7265 C.ar    1  UNL1       -0.0037
     11 C          62.4962   81.6740   11.5759 C.ar    1  UNL1       -0.0003
     12 C          63.8838   81.3611   11.0998 C.ar    1  UNL1       -0.0000
     13 C          64.8341   82.4750   10.7743 C.ar    1  UNL1       -0.0003
     14 C          64.3968   83.9020   10.9249 C.ar    1  UNL1       -0.0037
     15 C          63.0336   85.6328   12.9786 C.ar    1  UNL1       -0.0152
     16 C          62.5543   84.5636   13.9152 C.ar    1  UNL1       -0.0037
     17 C          63.0160   84.5546   15.3423 C.ar    1  UNL1       -0.0003
     18 C          63.9571   85.6146   15.8329 C.ar    1  UNL1       -0.0000
     19 C          64.4365   86.6837   14.8963 C.ar    1  UNL1       -0.0003
     20 C          63.9747   86.6928   13.4692 C.ar    1  UNL1       -0.0037
     21 C          62.1346   87.0687   11.7020 C.3     1  UNL1        0.0140
     22 C          62.6490   88.1145   10.7576 C.3     1  UNL1        0.0222
     23 CA         62.3711   89.5648   11.0210 C.3     1  UNL1        0.0879
     24 N          61.4951   90.3428   10.0843 N.3     1  UNL1       -0.3179
     25 H1         61.1780   89.7334    9.3303 H       1  UNL1        0.1191
     26 H2         62.0241   91.1218    9.6922 H       1  UNL1        0.1191
     27 C          62.9692   90.2372   12.2211 C.2     1  UNL1        0.0644
     28 O          62.5281   89.8425   13.5995 O.co2   1  UNL1       -0.5478
     29 OXT        64.0083   91.3041   12.0429 O.co2   1  UNL1       -0.5478
@<TRIPOS>UNITY_ATOM_ATTR
28 1
charge -1
@<TRIPOS>BOND
     1     2     3    1
     2     3     4   ar
     3     4     5   ar
     4     5     6   ar
     5     6     7   ar
     6     7     1    1
     7     1    21    1
     8    21    22    1
     9    22    23    1
    10    23    24    1
    11    23    27    1
    12    27    28   ar
    13    27    29   ar
    14     1     9    1
    15     9    10   ar
    16    10    11   ar
    17    11    12   ar
    18    12    13   ar
    19    13    14   ar
    20     1    15    1
    21    15    16   ar
    22    16    17   ar
    23    17    18   ar
    24    18    19   ar
    25    19    20   ar
    26     7     8   ar
    27     8     3   ar
    28    14     9   ar
    29    20    15   ar
    30    24    25    1
    31    24    26    1
