@<TRIPOS>MOLECULE
*****
 25 28 0 0 0
SMALL
GASTEIGER

@<TRIPOS>ATOM
      1 C          62.5143   89.5030   11.1402 C.2     1  UNL1        0.0958
      2 C          62.5729   90.5511   10.0687 C.2     1  UNL1        0.1049
      3 N          63.5117   91.6284   10.5251 N.2     1  UNL1       -0.2475
      4 C          64.0331   91.2461   11.8786 C.2     1  UNL1        0.0668
      5 C          64.9896   91.9244   12.8139 C.3     1  UNL1        0.1097
      6 C          65.3297   91.2891   14.1295 C.2     1  UNL1        0.1277
      7 C          64.7133   89.9755   14.5097 C.2     1  UNL1        0.0330
      8 C          63.7568   89.2973   13.5743 C.2     1  UNL1        0.0042
      9 C          63.4167   89.9325   12.2588 C.2     1  UNL1        0.0218
     10 O          60.2946   88.2460   11.6329 O.2     1  UNL1       -0.2448
     11 C          61.6967   88.2460   11.1002 C.2     1  UNL1        0.3428
     12 O          62.2813   86.9889   10.5274 O.3     1  UNL1       -0.4454
     13 C          61.7801   85.6517   10.9863 C.3     1  UNL1        0.2087
     14 C          62.7441   84.5229   11.2011 C.3     1  UNL1        0.0445
     15 C          62.9920   84.0013   12.5855 C.3     1  UNL1        0.0210
     16 C          63.9561   82.8725   12.8002 C.3     1  UNL1        0.0722
     17 N          64.6724   82.2650   11.6306 N.3     1  UNL1       -0.2727
     18 C          64.4245   82.7865   10.2462 C.3     1  UNL1        0.0722
     19 C          63.4604   83.9155   10.0315 C.3     1  UNL1        0.0210
     20 C          64.1532   82.8819   11.4634 C.3     1  UNL1        0.0722
     21 C          63.2815   83.9027   11.2691 C.3     1  UNL1        0.0210
     22 O          66.2863   91.9674   15.0650 O.2     1  UNL1       -0.4277
     23 C          67.7642   91.8665   14.8294 C.3     1  UNL1        0.5084
     24 F          68.7191   92.0306   15.9745 F       1  UNL1       -0.1550
     25 F          68.2873   91.6016   13.4487 F       1  UNL1       -0.1550
@<TRIPOS>BOND
     1    10    11    2
     2    11    12    1
     3    12    13    1
     4    13    14    1
     5    14    15    1
     6    15    16    1
     7    16    17    1
     8    17    18    1
     9    18    19    1
    10    17    20    1
    11    20    21    1
    12    11     1    1
    13     1     2    2
    14     2     3    1
    15     3     4    2
    16     4     5    1
    17     5     6    1
    18     6    22    1
    19    22    23    1
    20    23    24    1
    21    23    25    1
    22     6     7    2
    23     7     8    1
    24     8     9    2
    25    19    14    1
    26     9     1    1
    27    21    14    1
    28     9     4    1
@<TRIPOS>MOLECULE
*****
 25 28 0 0 0
SMALL
GASTEIGER

@<TRIPOS>ATOM
      1 C          63.7734   83.7686   12.7330 C.2     1  UNL1        0.0958
      2 C          64.7135   82.8411   12.0217 C.2     1  UNL1        0.1049
      3 N          64.5583   83.0654   10.5467 N.2     1  UNL1       -0.2475
      4 C          63.5223   84.1315   10.3464 C.2     1  UNL1        0.0668
      5 C          62.9579   84.7626    9.1082 C.3     1  UNL1        0.1097
      6 C          61.9085   85.8284    9.2212 C.2     1  UNL1        0.1277
      7 C          61.4234   86.2630   10.5725 C.2     1  UNL1        0.0330
      8 C          61.9878   85.6319   11.8106 C.2     1  UNL1        0.0042
      9 C          63.0372   84.5661   11.6976 C.2     1  UNL1        0.0218
     10 O          63.7263   82.6589   15.0816 O.2     1  UNL1       -0.2448
     11 C          63.6000   83.8793   14.2188 C.2     1  UNL1        0.3428
     12 O          63.3002   85.2105   14.8419 O.3     1  UNL1       -0.4454
     13 C          64.3914   86.2277   14.9993 C.3     1  UNL1        0.2087
     14 C          64.0460   87.6764   15.1775 C.3     1  UNL1        0.0445
     15 C          64.3070   88.6517   14.0682 C.3     1  UNL1        0.0210
     16 C          63.9616   90.1004   14.2466 C.3     1  UNL1        0.0722
     17 N          63.3552   90.5740   15.5343 N.3     1  UNL1       -0.2727
     18 C          63.0943   89.5987   16.6436 C.3     1  UNL1        0.0722
     19 C          63.4397   88.1498   16.4653 C.3     1  UNL1        0.0210
     20 C          63.5276   89.7704   15.4830 C.3     1  UNL1        0.0722
     21 C          63.8399   88.4604   15.3219 C.3     1  UNL1        0.0210
     22 O          61.3441   86.4596    7.9830 O.2     1  UNL1       -0.4277
     23 C          60.0554   87.2241    8.0516 C.3     1  UNL1        0.5084
     24 F          58.7617   86.4957    8.2656 F       1  UNL1       -0.1550
     25 F          60.0604   88.7171    7.9062 F       1  UNL1       -0.1550
@<TRIPOS>BOND
     1    10    11    2
     2    11    12    1
     3    12    13    1
     4    13    14    1
     5    14    15    1
     6    15    16    1
     7    16    17    1
     8    17    18    1
     9    18    19    1
    10    17    20    1
    11    20    21    1
    12    11     1    1
    13     1     2    2
    14     2     3    1
    15     3     4    2
    16     4     5    1
    17     5     6    1
    18     6    22    1
    19    22    23    1
    20    23    24    1
    21    23    25    1
    22     6     7    2
    23     7     8    1
    24     8     9    2
    25    19    14    1
    26     9     1    1
    27    21    14    1
    28     9     4    1
@<TRIPOS>MOLECULE
*****
 25 28 0 0 0
SMALL
GASTEIGER

@<TRIPOS>ATOM
      1 C          63.6506   87.4148   13.3838 C.2     1  UNL1        0.0958
      2 C          64.4364   87.5243   14.6568 C.2     1  UNL1        0.1049
      3 N          64.7354   86.1353   15.1377 N.2     1  UNL1       -0.2475
      4 C          64.1345   85.1674   14.1620 C.2     1  UNL1        0.0668
      5 C          64.1112   83.6682   14.1205 C.3     1  UNL1        0.1097
      6 C          63.4174   82.9598   12.9951 C.2     1  UNL1        0.1277
      7 C          62.7469   83.7506   11.9111 C.2     1  UNL1        0.0330
      8 C          62.7702   85.2498   11.9525 C.2     1  UNL1        0.0042
      9 C          63.4640   85.9582   13.0780 C.2     1  UNL1        0.0218
     10 O          63.8528   89.8806   12.5908 O.2     1  UNL1       -0.2448
     11 C          63.1408   88.5608   12.5611 C.2     1  UNL1        0.3428
     12 O          61.9189   88.3869   11.7085 O.3     1  UNL1       -0.4454
     13 C          62.0013   88.6039   10.2265 C.3     1  UNL1        0.2087
     14 C          61.3356   87.6403    9.2894 C.3     1  UNL1        0.0445
     15 C          59.9042   87.8480    8.8921 C.3     1  UNL1        0.0210
     16 C          59.2385   86.8844    7.9549 C.3     1  UNL1        0.0722
     17 N          60.0043   85.7130    7.4149 N.3     1  UNL1       -0.2727
     18 C          61.4357   85.5053    7.8122 C.3     1  UNL1        0.0722
     19 C          62.1014   86.4690    8.7495 C.3     1  UNL1        0.0210
     20 C          60.4116   86.2142    7.9257 C.3     1  UNL1        0.0722
     21 C          61.0136   87.0855    8.7731 C.3     1  UNL1        0.0210
     22 O          63.3940   81.4605   12.9536 O.2     1  UNL1       -0.4277
     23 C          62.2630   80.7101   13.5921 C.3     1  UNL1        0.5084
     24 F          61.2834   81.4329   14.4683 F       1  UNL1       -0.1550
     25 F          62.1117   79.2367   13.3543 F       1  UNL1       -0.1550
@<TRIPOS>BOND
     1    10    11    2
     2    11    12    1
     3    12    13    1
     4    13    14    1
     5    14    15    1
     6    15    16    1
     7    16    17    1
     8    17    18    1
     9    18    19    1
    10    17    20    1
    11    20    21    1
    12    11     1    1
    13     1     2    2
    14     2     3    1
    15     3     4    2
    16     4     5    1
    17     5     6    1
    18     6    22    1
    19    22    23    1
    20    23    24    1
    21    23    25    1
    22     6     7    2
    23     7     8    1
    24     8     9    2
    25    19    14    1
    26     9     1    1
    27    21    14    1
    28     9     4    1
@<TRIPOS>MOLECULE
*****
 25 28 0 0 0
SMALL
GASTEIGER

@<TRIPOS>ATOM
      1 C          63.4832   90.6855   11.8152 C.2     1  UNL1        0.0958
      2 C          63.8730   91.4925   10.6123 C.2     1  UNL1        0.1049
      3 N          64.9178   92.4816   11.0365 N.2     1  UNL1       -0.2475
      4 C          65.1738   92.2859   12.5015 C.2     1  UNL1        0.0668
      5 C          66.0997   92.9752   13.4594 C.3     1  UNL1        0.1097
      6 C          66.1389   92.5543   14.8986 C.2     1  UNL1        0.1277
      7 C          65.2523   91.4443   15.3799 C.2     1  UNL1        0.0330
      8 C          64.3264   90.7550   14.4220 C.2     1  UNL1        0.0042
      9 C          64.2871   91.1759   12.9828 C.2     1  UNL1        0.0218
     10 O          61.3011   89.6615   12.7846 O.2     1  UNL1       -0.2448
     11 C          62.4678   89.5819   11.8452 C.2     1  UNL1        0.3428
     12 O          62.6190   88.3985   10.9359 O.3     1  UNL1       -0.4454
     13 C          61.5422   87.3560   10.8761 C.3     1  UNL1        0.2087
     14 C          61.1594   86.7478    9.5595 C.3     1  UNL1        0.0445
     15 C          62.1453   85.9025    8.8089 C.3     1  UNL1        0.0210
     16 C          61.7624   85.2943    7.4922 C.3     1  UNL1        0.0722
     17 N          60.3937   85.5314    6.9262 N.3     1  UNL1       -0.2727
     18 C          59.4078   86.3768    7.6768 C.3     1  UNL1        0.0722
     19 C          59.7907   86.9850    8.9935 C.3     1  UNL1        0.0210
     20 C          60.5578   85.8857    7.6512 C.3     1  UNL1        0.0722
     21 C          60.9039   86.4356    8.8417 C.3     1  UNL1        0.0210
     22 O          67.0648   93.2435   15.8566 O.2     1  UNL1       -0.4277
     23 C          68.5250   93.3619   15.5345 C.3     1  UNL1        0.5084
     24 F          69.3439   94.4545   16.1555 F       1  UNL1       -0.1550
     25 F          69.1664   92.3877   14.5912 F       1  UNL1       -0.1550
@<TRIPOS>BOND
     1    10    11    2
     2    11    12    1
     3    12    13    1
     4    13    14    1
     5    14    15    1
     6    15    16    1
     7    16    17    1
     8    17    18    1
     9    18    19    1
    10    17    20    1
    11    20    21    1
    12    11     1    1
    13     1     2    2
    14     2     3    1
    15     3     4    2
    16     4     5    1
    17     5     6    1
    18     6    22    1
    19    22    23    1
    20    23    24    1
    21    23    25    1
    22     6     7    2
    23     7     8    1
    24     8     9    2
    25    19    14    1
    26     9     1    1
    27    21    14    1
    28     9     4    1
@<TRIPOS>MOLECULE
*****
 25 28 0 0 0
SMALL
GASTEIGER

@<TRIPOS>ATOM
      1 C          63.3811   83.6820   11.6643 C.2     1  UNL1        0.0958
      2 C          64.1406   83.0557   10.5325 C.2     1  UNL1        0.1049
      3 N          63.8580   83.8477    9.2904 N.2     1  UNL1       -0.2475
      4 C          62.9238   84.9634    9.6545 C.2     1  UNL1        0.0668
      5 C          62.3035   86.0593    8.8396 C.3     1  UNL1        0.1097
      6 C          61.3884   87.0528    9.4920 C.2     1  UNL1        0.1277
      7 C          61.0937   86.9504   10.9592 C.2     1  UNL1        0.0330
      8 C          61.7141   85.8545   11.7740 C.2     1  UNL1        0.0042
      9 C          62.6291   84.8610   11.1217 C.2     1  UNL1        0.0218
     10 O          62.2603   82.3396   13.5857 O.2     1  UNL1       -0.2448
     11 C          63.3748   83.2118   13.0887 C.2     1  UNL1        0.3428
     12 O          64.4831   83.6139   14.0162 O.3     1  UNL1       -0.4454
     13 C          64.1624   84.1503   15.3799 C.3     1  UNL1        0.2087
     14 C          63.9506   85.6222   15.5761 C.3     1  UNL1        0.0445
     15 C          63.2179   86.1198   16.7867 C.3     1  UNL1        0.0210
     16 C          63.0062   87.5917   16.9828 C.3     1  UNL1        0.0722
     17 N          63.5270   88.5662   15.9683 N.3     1  UNL1       -0.2727
     18 C          64.2597   88.0686   14.7577 C.3     1  UNL1        0.0722
     19 C          64.4715   86.5966   14.5616 C.3     1  UNL1        0.0210
     20 C          63.6674   87.7689   15.8177 C.3     1  UNL1        0.0722
     21 C          63.8589   86.4380   15.6403 C.3     1  UNL1        0.0210
     22 O          60.7680   88.1488    8.6771 O.2     1  UNL1       -0.4277
     23 C          59.4912   87.8978    7.9309 C.3     1  UNL1        0.5084
     24 F          59.0854   88.8093    6.8109 F       1  UNL1       -0.1550
     25 F          58.6202   86.7351    8.3048 F       1  UNL1       -0.1550
@<TRIPOS>BOND
     1    10    11    2
     2    11    12    1
     3    12    13    1
     4    13    14    1
     5    14    15    1
     6    15    16    1
     7    16    17    1
     8    17    18    1
     9    18    19    1
    10    17    20    1
    11    20    21    1
    12    11     1    1
    13     1     2    2
    14     2     3    1
    15     3     4    2
    16     4     5    1
    17     5     6    1
    18     6    22    1
    19    22    23    1
    20    23    24    1
    21    23    25    1
    22     6     7    2
    23     7     8    1
    24     8     9    2
    25    19    14    1
    26     9     1    1
    27    21    14    1
    28     9     4    1
@<TRIPOS>MOLECULE
*****
 25 28 0 0 0
SMALL
GASTEIGER

@<TRIPOS>ATOM
      1 C          63.1132   90.7729   11.3854 C.2     1  UNL1        0.0958
      2 C          63.6927   91.6143   10.2872 C.2     1  UNL1        0.1049
      3 N          64.8357   92.3996   10.8590 N.2     1  UNL1       -0.2475
      4 C          64.9626   92.0435   12.3106 C.2     1  UNL1        0.0668
      5 C          65.9099   92.5049   13.3781 C.3     1  UNL1        0.1097
      6 C          65.7927   91.9608   14.7710 C.2     1  UNL1        0.1277
      7 C          64.7281   90.9554   15.0964 C.2     1  UNL1        0.0330
      8 C          63.7808   90.4941   14.0288 C.2     1  UNL1        0.0042
      9 C          63.8980   91.0382   12.6359 C.2     1  UNL1        0.0218
     10 O          61.1930   89.4050   12.4769 O.2     1  UNL1       -0.2448
     11 C          61.9526   89.8315   11.2559 C.2     1  UNL1        0.3428
     12 O          61.5516   89.3166    9.9053 O.3     1  UNL1       -0.4454
     13 C          60.8754   87.9834    9.7813 C.3     1  UNL1        0.2087
     14 C          61.6669   86.7217    9.9586 C.3     1  UNL1        0.0445
     15 C          61.7267   86.0563   11.3016 C.3     1  UNL1        0.0210
     16 C          62.5183   84.7945   11.4789 C.3     1  UNL1        0.0722
     17 N          63.2500   84.1981   10.3131 N.3     1  UNL1       -0.2727
     18 C          63.1902   84.8635    8.9701 C.3     1  UNL1        0.0722
     19 C          62.3986   86.1253    8.7929 C.3     1  UNL1        0.0210
     20 C          62.8293   84.8908   10.1674 C.3     1  UNL1        0.0722
     21 C          62.1136   86.0317   10.0070 C.3     1  UNL1        0.0210
     22 O          66.7401   92.4221   15.8386 O.2     1  UNL1       -0.4277
     23 C          68.0621   93.0213   15.4603 C.3     1  UNL1        0.5084
     24 F          68.4891   94.3312   16.0534 F       1  UNL1       -0.1550
     25 F          68.9572   92.3106   14.4888 F       1  UNL1       -0.1550
@<TRIPOS>BOND
     1    10    11    2
     2    11    12    1
     3    12    13    1
     4    13    14    1
     5    14    15    1
     6    15    16    1
     7    16    17    1
     8    17    18    1
     9    18    19    1
    10    17    20    1
    11    20    21    1
    12    11     1    1
    13     1     2    2
    14     2     3    1
    15     3     4    2
    16     4     5    1
    17     5     6    1
    18     6    22    1
    19    22    23    1
    20    23    24    1
    21    23    25    1
    22     6     7    2
    23     7     8    1
    24     8     9    2
    25    19    14    1
    26     9     1    1
    27    21    14    1
    28     9     4    1
@<TRIPOS>MOLECULE
*****
 25 28 0 0 0
SMALL
GASTEIGER

@<TRIPOS>ATOM
      1 C          64.2003   89.3067   14.0947 C.2     1  UNL1        0.0958
      2 C          64.3336   87.9459   14.7115 C.2     1  UNL1        0.1049
      3 N          63.7219   86.9494   13.7720 N.2     1  UNL1       -0.2475
      4 C          63.2105   87.6943   12.5746 C.2     1  UNL1        0.0668
      5 C          62.5138   87.2342   11.3285 C.3     1  UNL1        0.1097
      6 C          62.1129   88.2310   10.2819 C.2     1  UNL1        0.1277
      7 C          62.4086   89.6880   10.4814 C.2     1  UNL1        0.0330
      8 C          63.1053   90.1481   11.7275 C.2     1  UNL1        0.0042
      9 C          63.5062   89.1513   12.7741 C.2     1  UNL1        0.0218
     10 O          63.6855   91.5942   15.2138 O.2     1  UNL1       -0.2448
     11 C          64.6774   90.5967   14.6935 C.2     1  UNL1        0.3428
     12 O          66.1466   90.8890   14.7720 O.3     1  UNL1       -0.4454
     13 C          66.6820   92.1880   14.2466 C.3     1  UNL1        0.2087
     14 C          66.7407   92.4315   12.7677 C.3     1  UNL1        0.0445
     15 C          65.6197   93.1543   12.0814 C.3     1  UNL1        0.0210
     16 C          65.6786   93.3978   10.6025 C.3     1  UNL1        0.0722
     17 N          66.8584   92.9185    9.8097 N.3     1  UNL1       -0.2727
     18 C          67.9793   92.1957   10.4960 C.3     1  UNL1        0.0722
     19 C          67.9205   91.9522   11.9750 C.3     1  UNL1        0.0210
     20 C          66.8708   92.7617   10.6180 C.3     1  UNL1        0.0722
     21 C          66.8177   92.5415   11.9553 C.3     1  UNL1        0.0210
     22 O          61.4161   87.7709    9.0357 O.2     1  UNL1       -0.4277
     23 C          60.0164   88.2266    8.7472 C.3     1  UNL1        0.5084
     24 F          59.6817   89.6884    8.7802 F       1  UNL1       -0.1550
     25 F          58.9514   87.2204    8.4258 F       1  UNL1       -0.1550
@<TRIPOS>BOND
     1    10    11    2
     2    11    12    1
     3    12    13    1
     4    13    14    1
     5    14    15    1
     6    15    16    1
     7    16    17    1
     8    17    18    1
     9    18    19    1
    10    17    20    1
    11    20    21    1
    12    11     1    1
    13     1     2    2
    14     2     3    1
    15     3     4    2
    16     4     5    1
    17     5     6    1
    18     6    22    1
    19    22    23    1
    20    23    24    1
    21    23    25    1
    22     6     7    2
    23     7     8    1
    24     8     9    2
    25    19    14    1
    26     9     1    1
    27    21    14    1
    28     9     4    1
@<TRIPOS>MOLECULE
*****
 25 28 0 0 0
SMALL
GASTEIGER

@<TRIPOS>ATOM
      1 C          64.6281   91.0833   14.9214 C.2     1  UNL1        0.0958
      2 C          64.0596   91.8678   16.0666 C.2     1  UNL1        0.1049
      3 N          63.3690   90.9073   16.9888 N.2     1  UNL1       -0.2475
      4 C          63.5106   89.5292   16.4136 C.2     1  UNL1        0.0668
      5 C          63.0315   88.1894   16.8882 C.3     1  UNL1        0.1097
      6 C          63.3306   86.9583   16.0851 C.2     1  UNL1        0.1277
      7 C          64.1089   87.0671   14.8074 C.2     1  UNL1        0.0330
      8 C          64.5880   88.4069   14.3328 C.2     1  UNL1        0.0042
      9 C          64.2888   89.6380   15.1358 C.2     1  UNL1        0.0218
     10 O          66.8883   91.4679   13.6993 O.2     1  UNL1       -0.2448
     11 C          65.4004   91.6454   13.7648 C.2     1  UNL1        0.3428
     12 O          64.6845   92.3852   12.6737 O.3     1  UNL1       -0.4454
     13 C          65.0388   92.1316   11.2383 C.3     1  UNL1        0.2087
     14 C          66.1453   92.9098   10.5903 C.3     1  UNL1        0.0445
     15 C          66.0293   94.3981   10.4434 C.3     1  UNL1        0.0210
     16 C          67.1359   95.1762    9.7953 C.3     1  UNL1        0.0722
     17 N          68.3585   94.4662    9.2941 N.3     1  UNL1       -0.2727
     18 C          68.4745   92.9779    9.4410 C.3     1  UNL1        0.0722
     19 C          67.3678   92.1997   10.0891 C.3     1  UNL1        0.0210
     20 C          67.7782   93.9972    9.6424 C.3     1  UNL1        0.0722
     21 C          66.7776   93.2934   10.2283 C.3     1  UNL1        0.0210
     22 O          62.8516   85.6184   16.5597 O.2     1  UNL1       -0.4277
     23 C          62.8781   84.4405   15.6313 C.3     1  UNL1        0.5084
     24 F          64.1123   83.5943   15.5286 F       1  UNL1       -0.1550
     25 F          61.6704   84.1088   14.8058 F       1  UNL1       -0.1550
@<TRIPOS>BOND
     1    10    11    2
     2    11    12    1
     3    12    13    1
     4    13    14    1
     5    14    15    1
     6    15    16    1
     7    16    17    1
     8    17    18    1
     9    18    19    1
    10    17    20    1
    11    20    21    1
    12    11     1    1
    13     1     2    2
    14     2     3    1
    15     3     4    2
    16     4     5    1
    17     5     6    1
    18     6    22    1
    19    22    23    1
    20    23    24    1
    21    23    25    1
    22     6     7    2
    23     7     8    1
    24     8     9    2
    25    19    14    1
    26     9     1    1
    27    21    14    1
    28     9     4    1
@<TRIPOS>MOLECULE
*****
 25 28 0 0 0
SMALL
GASTEIGER

@<TRIPOS>ATOM
      1 C          63.4727   87.3420   13.1322 C.2     1  UNL1        0.0958
      2 C          64.2769   87.6518   14.3598 C.2     1  UNL1        0.1049
      3 N          64.6937   86.3517   14.9811 N.2     1  UNL1       -0.2475
      4 C          64.1471   85.2384   14.1374 C.2     1  UNL1        0.0668
      5 C          64.2391   83.7465   14.2620 C.3     1  UNL1        0.1097
      6 C          63.5764   82.8666   13.2440 C.2     1  UNL1        0.1277
      7 C          62.8217   83.4787   12.1012 C.2     1  UNL1        0.0330
      8 C          62.7297   84.9706   11.9766 C.2     1  UNL1        0.0042
      9 C          63.3925   85.8505   12.9947 C.2     1  UNL1        0.0218
     10 O          61.5391   88.0554   11.5503 O.2     1  UNL1       -0.2448
     11 C          62.8568   88.3473   12.2047 C.2     1  UNL1        0.3428
     12 O          63.5587   89.6446   11.9317 O.3     1  UNL1       -0.4454
     13 C          63.6018   90.7105   12.9862 C.3     1  UNL1        0.2087
     14 C          64.8793   91.4496   13.2536 C.3     1  UNL1        0.0445
     15 C          65.2918   92.5819   12.3604 C.3     1  UNL1        0.0210
     16 C          66.5693   93.3210   12.6278 C.3     1  UNL1        0.0722
     17 N          67.4345   92.9279   13.7884 N.3     1  UNL1       -0.2727
     18 C          67.0221   91.7956   14.6816 C.3     1  UNL1        0.0722
     19 C          65.7444   91.0564   14.4142 C.3     1  UNL1        0.0210
     20 C          66.7433   92.4933   13.6818 C.3     1  UNL1        0.0722
     21 C          65.5881   91.8249   13.4400 C.3     1  UNL1        0.0210
     22 O          63.6683   81.3746   13.3686 O.2     1  UNL1       -0.4277
     23 C          62.4704   80.5220   13.0716 C.3     1  UNL1        0.5084
     24 F          61.1866   80.7476   13.8137 F       1  UNL1       -0.1550
     25 F          62.5565   79.4436   12.0324 F       1  UNL1       -0.1550
@<TRIPOS>BOND
     1    10    11    2
     2    11    12    1
     3    12    13    1
     4    13    14    1
     5    14    15    1
     6    15    16    1
     7    16    17    1
     8    17    18    1
     9    18    19    1
    10    17    20    1
    11    20    21    1
    12    11     1    1
    13     1     2    2
    14     2     3    1
    15     3     4    2
    16     4     5    1
    17     5     6    1
    18     6    22    1
    19    22    23    1
    20    23    24    1
    21    23    25    1
    22     6     7    2
    23     7     8    1
    24     8     9    2
    25    19    14    1
    26     9     1    1
    27    21    14    1
    28     9     4    1
