@<TRIPOS>MOLECULE
*****
 13 13 0 0 0
SMALL
GASTEIGER

@<TRIPOS>ATOM
      1 C          60.2120   87.4688    9.7728 C.3     1  UNL1        0.0448
      2 C          61.2907   86.4266    9.7868 C.ar    1  UNL1       -0.0208
      3 C          61.6359   85.7216   11.0650 C.ar    1  UNL1       -0.0042
      4 C          62.7146   84.6794   11.0790 C.ar    1  UNL1       -0.0003
      5 C          63.4481   84.3422    9.8148 C.ar    1  UNL1       -0.0000
      6 C          63.1029   85.0471    8.5366 C.ar    1  UNL1       -0.0003
      7 C          62.0242   86.0894    8.5226 C.ar    1  UNL1       -0.0042
      8 C          59.9480   88.2583    8.5251 C.3     1  UNL1        0.0885
      9 N          58.3302   86.4486    7.5990 N.3     1  UNL1       -0.2698
     10 N          58.8251   87.8646    7.6118 N.3     1  UNL1       -0.2484
     11 H          57.5699   86.3603    6.9248 H       1  UNL1        0.1368
     12 H          57.9915   86.1984    8.5281 H       1  UNL1        0.1368
     13 H          58.0281   88.4529    7.8546 H       1  UNL1        0.1411
@<TRIPOS>BOND
     1     9    10    1
     2    10     8    1
     3     8     1    1
     4     1     2    1
     5     2     3   ar
     6     3     4   ar
     7     4     5   ar
     8     5     6   ar
     9     6     7   ar
    10     7     2   ar
    11     9    11    1
    12     9    12    1
    13    10    13    1
@<TRIPOS>MOLECULE
*****
 13 13 0 0 0
SMALL
GASTEIGER

@<TRIPOS>ATOM
      1 C          64.7399   90.8299   14.3405 C.3     1  UNL1        0.0448
      2 C          64.0791   90.5541   13.0224 C.ar    1  UNL1       -0.0208
      3 C          64.1430   91.5733   11.9237 C.ar    1  UNL1       -0.0042
      4 C          63.4823   91.2975   10.6056 C.ar    1  UNL1       -0.0003
      5 C          62.7577   90.0027   10.3862 C.ar    1  UNL1       -0.0000
      6 C          62.6938   88.9835   11.4849 C.ar    1  UNL1       -0.0003
      7 C          63.3546   89.2592   12.8030 C.ar    1  UNL1       -0.0042
      8 C          63.9654   90.6717   15.6153 C.3     1  UNL1        0.0885
      9 N          64.6524   92.7563   17.0056 N.3     1  UNL1       -0.2698
     10 N          63.5856   91.8813   16.4170 N.3     1  UNL1       -0.2484
     11 H          64.2181   93.5261   17.5147 H       1  UNL1        0.1368
     12 H          65.2366   93.1300   16.2576 H       1  UNL1        0.1368
     13 H          63.0220   92.4737   15.8072 H       1  UNL1        0.1411
@<TRIPOS>BOND
     1     9    10    1
     2    10     8    1
     3     8     1    1
     4     1     2    1
     5     2     3   ar
     6     3     4   ar
     7     4     5   ar
     8     5     6   ar
     9     6     7   ar
    10     7     2   ar
    11     9    11    1
    12     9    12    1
    13    10    13    1
@<TRIPOS>MOLECULE
*****
 13 13 0 0 0
SMALL
GASTEIGER

@<TRIPOS>ATOM
      1 C          62.1008   86.0301    8.8892 C.3     1  UNL1        0.0448
      2 C          62.7265   85.1180    9.9024 C.ar    1  UNL1       -0.0208
      3 C          62.4491   85.3167   11.3630 C.ar    1  UNL1       -0.0042
      4 C          63.0749   84.4046   12.3762 C.ar    1  UNL1       -0.0003
      5 C          63.9780   83.2938   11.9287 C.ar    1  UNL1       -0.0000
      6 C          64.2554   83.0950   10.4681 C.ar    1  UNL1       -0.0003
      7 C          63.6297   84.0072    9.4549 C.ar    1  UNL1       -0.0042
      8 C          60.6437   86.3724    8.9869 C.3     1  UNL1        0.0885
      9 N          58.3707   86.7030    7.7727 N.3     1  UNL1       -0.2698
     10 N          59.7201   86.0524    7.8491 N.3     1  UNL1       -0.2484
     11 H          57.8806   86.3728    6.9413 H       1  UNL1        0.1368
     12 H          58.4838   87.7154    7.7211 H       1  UNL1        0.1368
     13 H          60.2142   86.2975    6.9910 H       1  UNL1        0.1411
@<TRIPOS>BOND
     1     9    10    1
     2    10     8    1
     3     8     1    1
     4     1     2    1
     5     2     3   ar
     6     3     4   ar
     7     4     5   ar
     8     5     6   ar
     9     6     7   ar
    10     7     2   ar
    11     9    11    1
    12     9    12    1
    13    10    13    1
@<TRIPOS>MOLECULE
*****
 13 13 0 0 0
SMALL
GASTEIGER

@<TRIPOS>ATOM
      1 C          61.9691   86.3895    9.1981 C.3     1  UNL1        0.0448
      2 C          62.5657   85.2768   10.0080 C.ar    1  UNL1       -0.0208
      3 C          63.4506   84.2606    9.3491 C.ar    1  UNL1       -0.0042
      4 C          64.0472   83.1478   10.1590 C.ar    1  UNL1       -0.0003
      5 C          63.7589   83.0513   11.6278 C.ar    1  UNL1       -0.0000
      6 C          62.8740   84.0676   12.2868 C.ar    1  UNL1       -0.0003
      7 C          62.2774   85.1803   11.4769 C.ar    1  UNL1       -0.0042
      8 C          60.4790   86.5344    9.1058 C.3     1  UNL1        0.0885
      9 N          58.3491   86.5219    7.6181 N.3     1  UNL1       -0.2698
     10 N          59.7547   86.0673    7.8782 N.3     1  UNL1       -0.2484
     11 H          58.0145   86.1109    6.7466 H       1  UNL1        0.1368
     12 H          58.3290   87.5391    7.5440 H       1  UNL1        0.1368
     13 H          60.3126   86.3623    7.0769 H       1  UNL1        0.1411
@<TRIPOS>BOND
     1     9    10    1
     2    10     8    1
     3     8     1    1
     4     1     2    1
     5     2     3   ar
     6     3     4   ar
     7     4     5   ar
     8     5     6   ar
     9     6     7   ar
    10     7     2   ar
    11     9    11    1
    12     9    12    1
    13    10    13    1
@<TRIPOS>MOLECULE
*****
 13 13 0 0 0
SMALL
GASTEIGER

@<TRIPOS>ATOM
      1 C          64.1299   82.6123   12.7442 C.3     1  UNL1        0.0448
      2 C          63.5755   83.5810   11.7420 C.ar    1  UNL1       -0.0208
      3 C          62.6652   84.6855   12.1906 C.ar    1  UNL1       -0.0042
      4 C          62.1108   85.6542   11.1884 C.ar    1  UNL1       -0.0003
      5 C          62.4667   85.5183    9.7376 C.ar    1  UNL1       -0.0000
      6 C          63.3770   84.4138    9.2890 C.ar    1  UNL1       -0.0003
      7 C          63.9314   83.4451   10.2912 C.ar    1  UNL1       -0.0042
      8 C          63.2879   81.4687   13.2271 C.3     1  UNL1        0.0885
      9 N          62.6964   82.7572   15.4043 N.3     1  UNL1       -0.2698
     10 N          62.7425   81.4767   14.6244 N.3     1  UNL1       -0.2484
     11 H          62.2993   82.5794   16.3268 H       1  UNL1        0.1368
     12 H          62.1171   83.4357   14.9098 H       1  UNL1        0.1368
     13 H          61.7844   81.1313   14.5685 H       1  UNL1        0.1411
@<TRIPOS>BOND
     1     9    10    1
     2    10     8    1
     3     8     1    1
     4     1     2    1
     5     2     3   ar
     6     3     4   ar
     7     4     5   ar
     8     5     6   ar
     9     6     7   ar
    10     7     2   ar
    11     9    11    1
    12     9    12    1
    13    10    13    1
@<TRIPOS>MOLECULE
*****
 13 13 0 0 0
SMALL
GASTEIGER

@<TRIPOS>ATOM
      1 C          63.6717   83.6222   14.1053 C.3     1  UNL1        0.0448
      2 C          63.5618   83.8346   12.6245 C.ar    1  UNL1       -0.0208
      3 C          64.3329   82.9589   11.6820 C.ar    1  UNL1       -0.0042
      4 C          64.2230   83.1713   10.2011 C.ar    1  UNL1       -0.0003
      5 C          63.3419   84.2593    9.6629 C.ar    1  UNL1       -0.0000
      6 C          62.5707   85.1350   10.6054 C.ar    1  UNL1       -0.0003
      7 C          62.6807   84.9226   12.0862 C.ar    1  UNL1       -0.0042
      8 C          62.5120   83.0564   14.8700 C.3     1  UNL1        0.0885
      9 N          63.1510   80.6043   14.2963 N.3     1  UNL1       -0.2698
     10 N          62.1180   81.6214   14.6817 N.3     1  UNL1       -0.2484
     11 H          62.7111   79.6879   14.2122 H       1  UNL1        0.1368
     12 H          63.8767   80.5687   15.0122 H       1  UNL1        0.1368
     13 H          61.7123   81.3093   15.5640 H       1  UNL1        0.1411
@<TRIPOS>BOND
     1     9    10    1
     2    10     8    1
     3     8     1    1
     4     1     2    1
     5     2     3   ar
     6     3     4   ar
     7     4     5   ar
     8     5     6   ar
     9     6     7   ar
    10     7     2   ar
    11     9    11    1
    12     9    12    1
    13    10    13    1
@<TRIPOS>MOLECULE
*****
 13 13 0 0 0
SMALL
GASTEIGER

@<TRIPOS>ATOM
      1 C          63.3935   83.4699   14.5711 C.3     1  UNL1        0.0448
      2 C          63.4531   83.5944   13.0774 C.ar    1  UNL1       -0.0208
      3 C          64.2944   82.6437   12.2786 C.ar    1  UNL1       -0.0042
      4 C          64.3540   82.7682   10.7849 C.ar    1  UNL1       -0.0003
      5 C          63.5723   83.8434   10.0902 C.ar    1  UNL1       -0.0000
      6 C          62.7310   84.7941   10.8890 C.ar    1  UNL1       -0.0003
      7 C          62.6714   84.6696   12.3827 C.ar    1  UNL1       -0.0042
      8 C          62.3343   84.1995   15.3428 C.3     1  UNL1        0.0885
      9 N          61.7367   86.0050   17.1129 N.3     1  UNL1       -0.2698
     10 N          62.6770   85.4609   16.0786 N.3     1  UNL1       -0.2484
     11 H          62.1254   86.8607   17.5092 H       1  UNL1        0.1368
     12 H          61.6092   85.3149   17.8531 H       1  UNL1        0.1368
     13 H          63.5673   85.2953   16.5480 H       1  UNL1        0.1411
@<TRIPOS>BOND
     1     9    10    1
     2    10     8    1
     3     8     1    1
     4     1     2    1
     5     2     3   ar
     6     3     4   ar
     7     4     5   ar
     8     5     6   ar
     9     6     7   ar
    10     7     2   ar
    11     9    11    1
    12     9    12    1
    13    10    13    1
@<TRIPOS>MOLECULE
*****
 13 13 0 0 0
SMALL
GASTEIGER

@<TRIPOS>ATOM
      1 C          62.3786   89.5860   10.3867 C.3     1  UNL1        0.0448
      2 C          61.5898   88.5918    9.5872 C.ar    1  UNL1       -0.0208
      3 C          62.0289   87.1587    9.5289 C.ar    1  UNL1       -0.0042
      4 C          61.2401   86.1645    8.7294 C.ar    1  UNL1       -0.0003
      5 C          60.0121   86.6033    7.9882 C.ar    1  UNL1       -0.0000
      6 C          59.5729   88.0363    8.0465 C.ar    1  UNL1       -0.0003
      7 C          60.3618   89.0306    8.8460 C.ar    1  UNL1       -0.0042
      8 C          62.7450   89.2829   11.8092 C.3     1  UNL1        0.0885
      9 N          62.6013   90.0749   14.2795 N.3     1  UNL1       -0.2698
     10 N          61.9652   89.8997   12.9324 N.3     1  UNL1       -0.2484
     11 H          61.9328   90.5064   14.9177 H       1  UNL1        0.1368
     12 H          63.4229   90.6731   14.1923 H       1  UNL1        0.1368
     13 H          61.6803   90.8274   12.6183 H       1  UNL1        0.1411
@<TRIPOS>BOND
     1     9    10    1
     2    10     8    1
     3     8     1    1
     4     1     2    1
     5     2     3   ar
     6     3     4   ar
     7     4     5   ar
     8     5     6   ar
     9     6     7   ar
    10     7     2   ar
    11     9    11    1
    12     9    12    1
    13    10    13    1
@<TRIPOS>MOLECULE
*****
 13 13 0 0 0
SMALL
GASTEIGER

@<TRIPOS>ATOM
      1 C          61.4455   89.7574   10.2334 C.3     1  UNL1        0.0448
      2 C          61.0740   88.5446    9.4328 C.ar    1  UNL1       -0.0208
      3 C          59.8575   88.5686    8.5557 C.ar    1  UNL1       -0.0042
      4 C          59.4860   87.3558    7.7550 C.ar    1  UNL1       -0.0003
      5 C          60.3311   86.1189    7.8315 C.ar    1  UNL1       -0.0000
      6 C          61.5477   86.0949    8.7086 C.ar    1  UNL1       -0.0003
      7 C          61.9191   87.3077    9.5092 C.ar    1  UNL1       -0.0042
      8 C          61.5045   89.6788   11.7302 C.3     1  UNL1        0.0885
      9 N          59.2273   88.6413   12.4287 N.3     1  UNL1       -0.2698
     10 N          60.2402   89.7425   12.5350 N.3     1  UNL1       -0.2484
     11 H          58.4367   88.8464   13.0397 H       1  UNL1        0.1368
     12 H          59.6540   87.7584   12.7096 H       1  UNL1        0.1368
     13 H          60.5175   89.7939   13.5152 H       1  UNL1        0.1411
@<TRIPOS>BOND
     1     9    10    1
     2    10     8    1
     3     8     1    1
     4     1     2    1
     5     2     3   ar
     6     3     4   ar
     7     4     5   ar
     8     5     6   ar
     9     6     7   ar
    10     7     2   ar
    11     9    11    1
    12     9    12    1
    13    10    13    1
