@<TRIPOS>MOLECULE
*****
 35 39 0 0 0
SMALL
GASTEIGER

@<TRIPOS>ATOM
      1 C          59.1602   95.0892   -0.2650 C.ar    1  UNL1       -0.0042
      2 C          59.8213   95.6314    0.9675 C.ar    1  UNL1       -0.0014
      3 C          60.1177   94.7206    2.1219 C.ar    1  UNL1        0.0144
      4 C          59.7531   93.2677    2.0438 C.ar    1  UNL1        0.0516
      5 C          59.0920   92.7256    0.8113 C.ar    1  UNL1        0.0144
      6 C          58.7955   93.6363   -0.3431 C.ar    1  UNL1       -0.0014
      7 N          60.0496   92.3569    3.1982 N.am    1  UNL1       -0.2681
      8 C          58.9344   91.8709    4.0757 C.2     1  UNL1        0.3077
      9 O          57.5227   92.2956    3.7989 O.2     1  UNL1       -0.2522
     10 N          59.2309   90.9602    5.2301 N.am    1  UNL1       -0.2632
     11 C          58.4090   90.2911    6.2916 C.3     1  UNL1        0.1010
     12 C          59.6503   89.6722    6.8626 C.3     1  UNL1        0.0636
     13 C          60.4722   90.3412    5.8012 C.3     1  UNL1        0.1010
     14 H          60.9762   92.0782    3.3799 H       1  UNL1        0.1564
     15 C          59.9468   88.7614    8.0171 C.ar    1  UNL1        0.0012
     16 C          59.9440   87.2745    7.8193 C.ar    1  UNL1        0.0948
     17 N          60.2405   86.3638    8.9737 N.ar    1  UNL1       -0.2414
     18 C          60.5398   86.9399   10.3259 C.ar    1  UNL1        0.1129
     19 C          60.5426   88.4269   10.5237 C.ar    1  UNL1        0.0607
     20 N          60.8418   89.0031   11.8759 N.pl3   1  UNL1       -0.3558
     21 C          60.2461   89.3376    9.3693 C.ar    1  UNL1        0.0130
     22 H          61.0364   88.4053   12.6336 H       1  UNL1        0.1424
     23 H          60.8437   89.9790   12.0057 H       1  UNL1        0.1424
     24 C          59.9513   96.8557   -1.9980 C.3     1  UNL1        0.0264
     25 C          58.8637   96.0000   -1.4194 C.3     1  UNL1        0.0985
     26 N          57.4797   96.0550   -1.9951 N.am    1  UNL1       -0.2699
     27 C          56.2275   96.4080   -1.2484 C.3     1  UNL1        0.1208
     28 C          55.0788   96.3379   -2.2104 C.ar    1  UNL1        0.0021
     29 C          53.6091   96.5836   -2.0383 C.ar    1  UNL1       -0.0025
     30 C          52.6816   96.4332   -3.2075 C.ar    1  UNL1       -0.0003
     31 C          53.2238   96.0369   -4.5488 C.ar    1  UNL1        0.0001
     32 C          54.6935   95.7911   -4.7209 C.ar    1  UNL1        0.0043
     33 C          55.6209   95.9416   -3.5517 C.ar    1  UNL1        0.0512
     34 C          57.1048   95.7668   -3.4186 C.2     1  UNL1        0.2492
     35 O          58.0481   95.3730   -4.5163 O.2     1  UNL1       -0.2699
@<TRIPOS>BOND
     1    25    24    1
     2    25     1    1
     3     1     2   ar
     4     2     3   ar
     5     3     4   ar
     6     4     7    1
     7     7     8   am
     8     8     9    2
     9     8    10   am
    10    10    11    1
    11    11    12    1
    12    12    15    1
    13    15    16   ar
    14    16    17   ar
    15    17    18   ar
    16    18    19   ar
    17    19    20    1
    18    19    21   ar
    19    12    13    1
    20     4     5   ar
    21     5     6   ar
    22    25    26    1
    23    26    27    1
    24    27    28    1
    25    28    29   ar
    26    29    30   ar
    27    30    31   ar
    28    31    32   ar
    29    32    33   ar
    30    33    34    1
    31    34    35    2
    32     6     1   ar
    33    34    26   am
    34    13    10    1
    35    33    28   ar
    36    21    15   ar
    37     7    14    1
    38    20    22    1
    39    20    23    1
@<TRIPOS>MOLECULE
*****
 35 39 0 0 0
SMALL
GASTEIGER

@<TRIPOS>ATOM
      1 C          59.4700   90.7557    5.3393 C.ar    1  UNL1       -0.0042
      2 C          60.8835   90.4228    4.9631 C.ar    1  UNL1       -0.0014
      3 C          61.5792   91.2084    3.8913 C.ar    1  UNL1        0.0144
      4 C          60.8615   92.3268    3.1956 C.ar    1  UNL1        0.0516
      5 C          59.4481   92.6597    3.5717 C.ar    1  UNL1        0.0144
      6 C          58.7524   91.8742    4.6436 C.ar    1  UNL1       -0.0014
      7 N          61.5573   93.1124    2.1237 N.am    1  UNL1       -0.2681
      8 C          61.5784   92.6017    0.7135 C.2     1  UNL1        0.3077
      9 O          60.9038   91.3054    0.3751 O.2     1  UNL1       -0.2522
     10 N          62.2742   93.3873   -0.3582 N.am    1  UNL1       -0.2632
     11 C          62.4994   93.2051   -1.8300 C.3     1  UNL1        0.1010
     12 C          63.2582   94.4983   -1.8740 C.3     1  UNL1        0.0636
     13 C          63.0329   94.6805   -0.4023 C.3     1  UNL1        0.1010
     14 H          62.0000   93.9632    2.3458 H       1  UNL1        0.1564
     15 C          63.9539   95.2839   -2.9458 C.ar    1  UNL1        0.0012
     16 C          65.3209   95.8481   -2.6946 C.ar    1  UNL1        0.0948
     17 N          66.0166   96.6337   -3.7665 N.ar    1  UNL1       -0.2414
     18 C          65.3454   96.8551   -5.0895 C.ar    1  UNL1        0.1129
     19 C          63.9784   96.2909   -5.3407 C.ar    1  UNL1        0.0607
     20 N          63.3072   96.5122   -6.6637 N.pl3   1  UNL1       -0.3558
     21 C          63.2827   95.5053   -4.2689 C.ar    1  UNL1        0.0130
     22 H          63.7638   97.0278   -7.3672 H       1  UNL1        0.1424
     23 H          62.4100   96.1419   -6.8286 H       1  UNL1        0.1424
     24 C          57.2783   89.8611    6.4097 C.3     1  UNL1        0.0264
     25 C          58.7743   89.9701    6.4111 C.3     1  UNL1        0.0985
     26 N          59.5746   89.2935    7.4843 N.am    1  UNL1       -0.2699
     27 C          60.4515   89.9752    8.4925 C.3     1  UNL1        0.1208
     28 C          61.0574   88.9195    9.3690 C.ar    1  UNL1        0.0021
     29 C          62.0016   89.0006   10.5317 C.ar    1  UNL1       -0.0025
     30 C          62.4435   87.7477   11.2278 C.ar    1  UNL1       -0.0003
     31 C          61.9411   86.4135   10.7614 C.ar    1  UNL1        0.0001
     32 C          60.9969   86.3323    9.5987 C.ar    1  UNL1        0.0043
     33 C          60.5550   87.5853    8.9026 C.ar    1  UNL1        0.0512
     34 C          59.6386   87.8165    7.7377 C.2     1  UNL1        0.2492
     35 O          58.9136   86.7567    6.9625 O.2     1  UNL1       -0.2699
@<TRIPOS>BOND
     1    25    24    1
     2    25     1    1
     3     1     2   ar
     4     2     3   ar
     5     3     4   ar
     6     4     7    1
     7     7     8   am
     8     8     9    2
     9     8    10   am
    10    10    11    1
    11    11    12    1
    12    12    15    1
    13    15    16   ar
    14    16    17   ar
    15    17    18   ar
    16    18    19   ar
    17    19    20    1
    18    19    21   ar
    19    12    13    1
    20     4     5   ar
    21     5     6   ar
    22    25    26    1
    23    26    27    1
    24    27    28    1
    25    28    29   ar
    26    29    30   ar
    27    30    31   ar
    28    31    32   ar
    29    32    33   ar
    30    33    34    1
    31    34    35    2
    32     6     1   ar
    33    34    26   am
    34    13    10    1
    35    33    28   ar
    36    21    15   ar
    37     7    14    1
    38    20    22    1
    39    20    23    1
@<TRIPOS>MOLECULE
*****
 35 39 0 0 0
SMALL
GASTEIGER

@<TRIPOS>ATOM
      1 C          60.2553   94.7118   -0.6070 C.ar    1  UNL1       -0.0042
      2 C          60.1754   95.3584    0.7441 C.ar    1  UNL1       -0.0014
      3 C          60.3201   94.5262    1.9836 C.ar    1  UNL1        0.0144
      4 C          60.5447   93.0473    1.8721 C.ar    1  UNL1        0.0516
      5 C          60.6247   92.4007    0.5211 C.ar    1  UNL1        0.0144
      6 C          60.4800   93.2329   -0.7185 C.ar    1  UNL1       -0.0014
      7 N          60.6894   92.2151    3.1117 N.am    1  UNL1       -0.2681
      8 C          59.4712   91.7943    3.8789 C.2     1  UNL1        0.3077
      9 O          58.1082   92.2055    3.4066 O.2     1  UNL1       -0.2522
     10 N          59.6159   90.9621    5.1185 N.am    1  UNL1       -0.2632
     11 C          58.6645   90.3697    6.1154 C.3     1  UNL1        0.1010
     12 C          59.8207   89.7852    6.8715 C.3     1  UNL1        0.0636
     13 C          60.7721   90.3775    5.8746 C.3     1  UNL1        0.1010
     14 H          61.5840   91.9452    3.4217 H       1  UNL1        0.1564
     15 C          59.9654   88.9530    8.1111 C.ar    1  UNL1        0.0012
     16 C          59.9105   87.4568    8.0206 C.ar    1  UNL1        0.0948
     17 N          60.0552   86.6245    9.2602 N.ar    1  UNL1       -0.2414
     18 C          60.2548   87.2886   10.5903 C.ar    1  UNL1        0.1129
     19 C          60.3096   88.7850   10.6808 C.ar    1  UNL1        0.0607
     20 N          60.5092   89.4491   12.0108 N.pl3   1  UNL1       -0.3558
     21 C          60.1649   89.6171    9.4412 C.ar    1  UNL1        0.0130
     22 H          60.6042   88.9029   12.8244 H       1  UNL1        0.1424
     23 H          60.5452   90.4311   12.0703 H       1  UNL1        0.1424
     24 C          60.8376   96.8510   -1.9614 C.3     1  UNL1        0.0264
     25 C          60.1106   95.5440   -1.8465 C.3     1  UNL1        0.0985
     26 N          59.2390   95.0692   -2.9712 N.am    1  UNL1       -0.2699
     27 C          59.6806   94.8145   -4.3819 C.3     1  UNL1        0.1208
     28 C          58.4873   94.3536   -5.1652 C.ar    1  UNL1        0.0021
     29 C          58.3220   93.9575   -6.6024 C.ar    1  UNL1       -0.0025
     30 C          56.9776   93.5312   -7.1130 C.ar    1  UNL1       -0.0003
     31 C          55.7984   93.5011   -6.1864 C.ar    1  UNL1        0.0001
     32 C          55.9637   93.8972   -4.7492 C.ar    1  UNL1        0.0043
     33 C          57.3081   94.3235   -4.2385 C.ar    1  UNL1        0.0512
     34 C          57.7727   94.7657   -2.8826 C.2     1  UNL1        0.2492
     35 O          56.9206   94.8838   -1.6538 O.2     1  UNL1       -0.2699
@<TRIPOS>BOND
     1    25    24    1
     2    25     1    1
     3     1     2   ar
     4     2     3   ar
     5     3     4   ar
     6     4     7    1
     7     7     8   am
     8     8     9    2
     9     8    10   am
    10    10    11    1
    11    11    12    1
    12    12    15    1
    13    15    16   ar
    14    16    17   ar
    15    17    18   ar
    16    18    19   ar
    17    19    20    1
    18    19    21   ar
    19    12    13    1
    20     4     5   ar
    21     5     6   ar
    22    25    26    1
    23    26    27    1
    24    27    28    1
    25    28    29   ar
    26    29    30   ar
    27    30    31   ar
    28    31    32   ar
    29    32    33   ar
    30    33    34    1
    31    34    35    2
    32     6     1   ar
    33    34    26   am
    34    13    10    1
    35    33    28   ar
    36    21    15   ar
    37     7    14    1
    38    20    22    1
    39    20    23    1
@<TRIPOS>MOLECULE
*****
 35 39 0 0 0
SMALL
GASTEIGER

@<TRIPOS>ATOM
      1 C          60.4579   94.8820   -0.6668 C.ar    1  UNL1       -0.0042
      2 C          60.1305   95.4680    0.6747 C.ar    1  UNL1       -0.0014
      3 C          60.2374   94.6222    1.9089 C.ar    1  UNL1        0.0144
      4 C          60.6717   93.1904    1.8016 C.ar    1  UNL1        0.0516
      5 C          60.9991   92.6045    0.4602 C.ar    1  UNL1        0.0144
      6 C          60.8922   93.4503   -0.7740 C.ar    1  UNL1       -0.0014
      7 N          60.7785   92.3447    3.0359 N.am    1  UNL1       -0.2681
      8 C          59.5380   91.9253    3.7674 C.2     1  UNL1        0.3077
      9 O          58.1906   92.3518    3.2648 O.2     1  UNL1       -0.2522
     10 N          59.6449   91.0796    5.0016 N.am    1  UNL1       -0.2632
     11 C          58.6640   90.4844    5.9678 C.3     1  UNL1        0.1010
     12 C          59.7961   89.8835    6.7470 C.3     1  UNL1        0.0636
     13 C          60.7770   90.4786    5.7809 C.3     1  UNL1        0.1010
     14 H          61.6629   92.0648    3.3658 H       1  UNL1        0.1564
     15 C          59.9030   89.0377    7.9813 C.ar    1  UNL1        0.0012
     16 C          59.7511   87.5485    7.8854 C.ar    1  UNL1        0.0948
     17 N          59.8580   86.7027    9.1197 N.ar    1  UNL1       -0.2414
     18 C          60.1167   87.3462   10.4497 C.ar    1  UNL1        0.1129
     19 C          60.2685   88.8355   10.5455 C.ar    1  UNL1        0.0607
     20 N          60.5272   89.4789   11.8756 N.pl3   1  UNL1       -0.3558
     21 C          60.1617   89.6812    9.3113 C.ar    1  UNL1        0.0130
     22 H          60.5974   88.9239   12.6856 H       1  UNL1        0.1424
     23 H          60.6269   90.4564   11.9385 H       1  UNL1        0.1424
     24 C          59.3640   96.8560   -1.9538 C.3     1  UNL1        0.0264
     25 C          60.3511   95.7278   -1.9009 C.3     1  UNL1        0.0985
     26 N          61.2313   95.4454   -3.0822 N.am    1  UNL1       -0.2699
     27 C          60.7766   94.9430   -4.4205 C.3     1  UNL1        0.1208
     28 C          61.9851   94.8029   -5.2981 C.ar    1  UNL1        0.0021
     29 C          62.1465   94.3505   -6.7190 C.ar    1  UNL1       -0.0025
     30 C          63.5096   94.3138   -7.3441 C.ar    1  UNL1       -0.0003
     31 C          64.7111   94.7296   -6.5482 C.ar    1  UNL1        0.0001
     32 C          64.5496   95.1821   -5.1272 C.ar    1  UNL1        0.0043
     33 C          63.1866   95.2187   -4.5022 C.ar    1  UNL1        0.0512
     34 C          62.7207   95.6158   -3.1327 C.2     1  UNL1        0.2492
     35 O          63.5915   96.0985   -2.0108 O.2     1  UNL1       -0.2699
@<TRIPOS>BOND
     1    25    24    1
     2    25     1    1
     3     1     2   ar
     4     2     3   ar
     5     3     4   ar
     6     4     7    1
     7     7     8   am
     8     8     9    2
     9     8    10   am
    10    10    11    1
    11    11    12    1
    12    12    15    1
    13    15    16   ar
    14    16    17   ar
    15    17    18   ar
    16    18    19   ar
    17    19    20    1
    18    19    21   ar
    19    12    13    1
    20     4     5   ar
    21     5     6   ar
    22    25    26    1
    23    26    27    1
    24    27    28    1
    25    28    29   ar
    26    29    30   ar
    27    30    31   ar
    28    31    32   ar
    29    32    33   ar
    30    33    34    1
    31    34    35    2
    32     6     1   ar
    33    34    26   am
    34    13    10    1
    35    33    28   ar
    36    21    15   ar
    37     7    14    1
    38    20    22    1
    39    20    23    1
@<TRIPOS>MOLECULE
*****
 35 39 0 0 0
SMALL
GASTEIGER

@<TRIPOS>ATOM
      1 C          60.0269   88.4337    9.3874 C.ar    1  UNL1       -0.0042
      2 C          59.1434   87.8306    8.3357 C.ar    1  UNL1       -0.0014
      3 C          58.8910   88.5688    7.0546 C.ar    1  UNL1        0.0144
      4 C          59.5219   89.9101    6.8251 C.ar    1  UNL1        0.0516
      5 C          60.4053   90.5133    7.8766 C.ar    1  UNL1        0.0144
      6 C          60.6578   89.7751    9.1578 C.ar    1  UNL1       -0.0014
      7 N          59.2694   90.6483    5.5439 N.am    1  UNL1       -0.2681
      8 C          60.4181   91.2303    4.7747 C.2     1  UNL1        0.3077
      9 O          61.8194   91.0741    5.2866 O.2     1  UNL1       -0.2522
     10 N          60.1656   91.9684    3.4936 N.am    1  UNL1       -0.2632
     11 C          61.0281   92.6642    2.4826 C.3     1  UNL1        0.1010
     12 C          59.8084   93.0124    1.6818 C.3     1  UNL1        0.0636
     13 C          58.9460   92.3166    2.6927 C.3     1  UNL1        0.1010
     14 H          58.3497   90.7509    5.2079 H       1  UNL1        0.1564
     15 C          59.5559   93.7506    0.4006 C.ar    1  UNL1        0.0012
     16 C          59.5754   95.2503    0.3828 C.ar    1  UNL1        0.0948
     17 N          59.3229   95.9885   -0.8984 N.ar    1  UNL1       -0.2414
     18 C          59.0510   95.2269   -2.1618 C.ar    1  UNL1        0.1129
     19 C          59.0315   93.7271   -2.1439 C.ar    1  UNL1        0.0607
     20 N          58.7596   92.9655   -3.4072 N.pl3   1  UNL1       -0.3558
     21 C          59.2840   92.9890   -0.8627 C.ar    1  UNL1        0.0130
     22 H          58.5939   93.4500   -4.2481 H       1  UNL1        0.1424
     23 H          58.7469   91.9811   -3.3955 H       1  UNL1        0.1424
     24 C          59.5524   88.0930   11.9189 C.3     1  UNL1        0.0264
     25 C          60.2793   87.6955   10.6685 C.3     1  UNL1        0.0985
     26 N          61.2587   86.5598   10.6992 N.am    1  UNL1       -0.2699
     27 C          61.7806   85.8786   11.9295 C.3     1  UNL1        0.1208
     28 C          62.7326   84.8036   11.4957 C.ar    1  UNL1        0.0021
     29 C          63.5474   83.8117   12.2715 C.ar    1  UNL1       -0.0025
     30 C          64.4288   82.8365   11.5489 C.ar    1  UNL1       -0.0003
     31 C          64.4954   82.8534   10.0505 C.ar    1  UNL1        0.0001
     32 C          63.6805   83.8453    9.2746 C.ar    1  UNL1        0.0043
     33 C          62.7991   84.8205    9.9973 C.ar    1  UNL1        0.0512
     34 C          61.8882   85.9058    9.5050 C.2     1  UNL1        0.2492
     35 O          61.6488   86.2728    8.0704 O.2     1  UNL1       -0.2699
@<TRIPOS>BOND
     1    25    24    1
     2    25     1    1
     3     1     2   ar
     4     2     3   ar
     5     3     4   ar
     6     4     7    1
     7     7     8   am
     8     8     9    2
     9     8    10   am
    10    10    11    1
    11    11    12    1
    12    12    15    1
    13    15    16   ar
    14    16    17   ar
    15    17    18   ar
    16    18    19   ar
    17    19    20    1
    18    19    21   ar
    19    12    13    1
    20     4     5   ar
    21     5     6   ar
    22    25    26    1
    23    26    27    1
    24    27    28    1
    25    28    29   ar
    26    29    30   ar
    27    30    31   ar
    28    31    32   ar
    29    32    33   ar
    30    33    34    1
    31    34    35    2
    32     6     1   ar
    33    34    26   am
    34    13    10    1
    35    33    28   ar
    36    21    15   ar
    37     7    14    1
    38    20    22    1
    39    20    23    1
@<TRIPOS>MOLECULE
*****
 35 39 0 0 0
SMALL
GASTEIGER

@<TRIPOS>ATOM
      1 C          59.4115   94.8040   -0.3472 C.ar    1  UNL1       -0.0042
      2 C          59.8864   95.4743    0.9079 C.ar    1  UNL1       -0.0014
      3 C          60.1675   94.6574    2.1341 C.ar    1  UNL1        0.0144
      4 C          59.9737   93.1703    2.1053 C.ar    1  UNL1        0.0516
      5 C          59.4989   92.5000    0.8502 C.ar    1  UNL1        0.0144
      6 C          59.2178   93.3169   -0.3761 C.ar    1  UNL1       -0.0014
      7 N          60.2548   92.3534    3.3316 N.am    1  UNL1       -0.2681
      8 C          59.1194   91.8140    4.1500 C.2     1  UNL1        0.3077
      9 O          57.7028   92.0914    3.7421 O.2     1  UNL1       -0.2522
     10 N          59.4005   90.9972    5.3762 N.am    1  UNL1       -0.2632
     11 C          58.5575   90.3126    6.4109 C.3     1  UNL1        0.1010
     12 C          59.7981   89.8420    7.1104 C.3     1  UNL1        0.0636
     13 C          60.6412   90.5265    6.0758 C.3     1  UNL1        0.1010
     14 H          61.1846   92.1713    3.5993 H       1  UNL1        0.1564
     15 C          60.0792   89.0251    8.3368 C.ar    1  UNL1        0.0012
     16 C          59.9578   89.6471    9.6963 C.ar    1  UNL1        0.0948
     17 N          60.2389   88.8302   10.9226 N.ar    1  UNL1       -0.2414
     18 C          60.6415   87.3914   10.7893 C.ar    1  UNL1        0.1129
     19 C          60.7629   86.7694    9.4297 C.ar    1  UNL1        0.0607
     20 N          61.1654   85.3306    9.2963 N.pl3   1  UNL1       -0.3558
     21 C          60.4818   87.5863    8.2034 C.ar    1  UNL1        0.0130
     22 H          61.3499   84.7945   10.1012 H       1  UNL1        0.1424
     23 H          61.2451   84.9224    8.4040 H       1  UNL1        0.1424
     24 C          58.1972   96.7926   -1.4963 C.3     1  UNL1        0.0264
     25 C          59.1304   95.6209   -1.5735 C.3     1  UNL1        0.0985
     26 N          59.7826   95.2660   -2.8768 N.am    1  UNL1       -0.2699
     27 C          59.1102   95.2258   -4.2171 C.3     1  UNL1        0.1208
     28 C          60.1338   94.8240   -5.2373 C.ar    1  UNL1        0.0021
     29 C          60.0461   94.6207   -6.7209 C.ar    1  UNL1       -0.0025
     30 C          61.2634   94.2093   -7.4947 C.ar    1  UNL1       -0.0003
     31 C          62.5684   94.0013   -6.7851 C.ar    1  UNL1        0.0001
     32 C          62.6561   94.2046   -5.3015 C.ar    1  UNL1        0.0043
     33 C          61.4388   94.6159   -4.5277 C.ar    1  UNL1        0.0512
     34 C          61.2218   94.8891   -3.0688 C.2     1  UNL1        0.2492
     35 O          62.2614   94.8009   -1.9911 O.2     1  UNL1       -0.2699
@<TRIPOS>BOND
     1    25    24    1
     2    25     1    1
     3     1     2   ar
     4     2     3   ar
     5     3     4   ar
     6     4     7    1
     7     7     8   am
     8     8     9    2
     9     8    10   am
    10    10    11    1
    11    11    12    1
    12    12    15    1
    13    15    16   ar
    14    16    17   ar
    15    17    18   ar
    16    18    19   ar
    17    19    20    1
    18    19    21   ar
    19    12    13    1
    20     4     5   ar
    21     5     6   ar
    22    25    26    1
    23    26    27    1
    24    27    28    1
    25    28    29   ar
    26    29    30   ar
    27    30    31   ar
    28    31    32   ar
    29    32    33   ar
    30    33    34    1
    31    34    35    2
    32     6     1   ar
    33    34    26   am
    34    13    10    1
    35    33    28   ar
    36    21    15   ar
    37     7    14    1
    38    20    22    1
    39    20    23    1
@<TRIPOS>MOLECULE
*****
 35 39 0 0 0
SMALL
GASTEIGER

@<TRIPOS>ATOM
      1 C          60.1733   88.3421    9.4172 C.ar    1  UNL1       -0.0042
      2 C          60.6687   89.7485    9.2530 C.ar    1  UNL1       -0.0014
      3 C          60.3843   90.5008    7.9869 C.ar    1  UNL1        0.0144
      4 C          59.6047   89.8468    6.8849 C.ar    1  UNL1        0.0516
      5 C          59.1093   88.4405    7.0490 C.ar    1  UNL1        0.0144
      6 C          59.3937   87.6882    8.3152 C.ar    1  UNL1       -0.0014
      7 N          59.3203   90.5992    5.6187 N.am    1  UNL1       -0.2681
      8 C          60.4503   91.1814    4.8224 C.2     1  UNL1        0.3077
      9 O          61.8646   91.0113    5.2922 O.2     1  UNL1       -0.2522
     10 N          60.1659   91.9337    3.5563 N.am    1  UNL1       -0.2632
     11 C          61.0035   92.6340    2.5277 C.3     1  UNL1        0.1010
     12 C          59.7637   92.9977    1.7657 C.3     1  UNL1        0.0636
     13 C          58.9262   92.2975    2.7942 C.3     1  UNL1        0.1010
     14 H          58.3921   90.7108    5.3103 H       1  UNL1        0.1564
     15 C          59.4794   93.7501    0.4995 C.ar    1  UNL1        0.0012
     16 C          59.4282   95.2491    0.5132 C.ar    1  UNL1        0.0948
     17 N          59.1439   96.0015   -0.7530 N.ar    1  UNL1       -0.2414
     18 C          58.9108   95.2547   -2.0329 C.ar    1  UNL1        0.1129
     19 C          58.9620   93.7556   -2.0465 C.ar    1  UNL1        0.0607
     20 N          58.7288   93.0088   -3.3264 N.pl3   1  UNL1       -0.3558
     21 C          59.2463   93.0033   -0.7804 C.ar    1  UNL1        0.0130
     22 H          58.5422   93.5026   -4.1574 H       1  UNL1        0.1424
     23 H          58.7624   92.0250   -3.3354 H       1  UNL1        0.1424
     24 C          59.7850   87.9925   11.9621 C.3     1  UNL1        0.0264
     25 C          60.4577   87.5899   10.6833 C.3     1  UNL1        0.0985
     26 N          61.4148   86.4349   10.6707 N.am    1  UNL1       -0.2699
     27 C          62.0380   85.8195    9.4530 C.3     1  UNL1        0.1208
     28 C          62.9250   84.6969    9.9033 C.ar    1  UNL1        0.0021
     29 C          63.7913   83.7359    9.1443 C.ar    1  UNL1       -0.0025
     30 C          64.5827   82.6966    9.8814 C.ar    1  UNL1       -0.0003
     31 C          64.5078   82.6181   11.3775 C.ar    1  UNL1        0.0001
     32 C          63.6415   83.5791   12.1365 C.ar    1  UNL1        0.0043
     33 C          62.8501   84.6184   11.3994 C.ar    1  UNL1        0.0512
     34 C          61.9167   85.6926   11.8736 C.2     1  UNL1        0.2492
     35 O          61.5497   85.9749   13.3004 O.2     1  UNL1       -0.2699
@<TRIPOS>BOND
     1    25    24    1
     2    25     1    1
     3     1     2   ar
     4     2     3   ar
     5     3     4   ar
     6     4     7    1
     7     7     8   am
     8     8     9    2
     9     8    10   am
    10    10    11    1
    11    11    12    1
    12    12    15    1
    13    15    16   ar
    14    16    17   ar
    15    17    18   ar
    16    18    19   ar
    17    19    20    1
    18    19    21   ar
    19    12    13    1
    20     4     5   ar
    21     5     6   ar
    22    25    26    1
    23    26    27    1
    24    27    28    1
    25    28    29   ar
    26    29    30   ar
    27    30    31   ar
    28    31    32   ar
    29    32    33   ar
    30    33    34    1
    31    34    35    2
    32     6     1   ar
    33    34    26   am
    34    13    10    1
    35    33    28   ar
    36    21    15   ar
    37     7    14    1
    38    20    22    1
    39    20    23    1
