@<TRIPOS>MOLECULE
*****
 55 55 0 0 0
SMALL
GASTEIGER

@<TRIPOS>ATOM
      1 C          62.3653   86.5904   10.7494 C.3     1  UNL1        0.1420
      2 O          62.1632   88.0762   10.7896 O.3     1  UNL1       -0.3486
      3 C          62.4432   89.2503   11.6800 C.3     1  UNL1        0.1979
      4 C          63.0743   89.5635   13.0043 C.3     1  UNL1        0.2625
      5 O          62.9927   91.0364   13.2760 O.3     1  UNL1       -0.3582
      6 O          63.7611   88.8690   14.1427 O.3     1  UNL1       -0.3287
      7 C          64.1823   87.4920   14.5626 C.3     1  UNL1        0.1472
      8 C          64.1409   86.0766   14.0675 C.3     1  UNL1        0.0571
      9 C          64.7889   85.1644   15.0664 C.3     1  UNL1        0.0051
     10 C          63.6561   85.2853   12.8890 C.3     1  UNL1        0.1225
     11 C          62.9549   85.4883   11.5786 C.3     1  UNL1        0.0569
     12 C          62.7916   84.1735   10.8751 C.3     1  UNL1        0.0051
     13 H          63.4027   91.2301   14.1335 H       1  UNL1        0.2130
     14 C          61.7987   86.0297    9.4788 C.3     1  UNL1        0.1133
     15 C          63.1348   85.4348    9.1456 C.3     1  UNL1        0.0318
     16 O          61.2322   85.4690    8.2081 O.3     1  UNL1       -0.3844
     17 H          60.6608   84.7129    8.4148 H       1  UNL1        0.2103
     18 C          60.4627   86.6247    9.8119 C.3     1  UNL1        0.0319
     19 C          59.6130   87.2155    8.7261 C.3     1  UNL1        0.0346
     20 C          59.7414   88.6695    8.3807 C.3     1  UNL1        0.1450
     21 O          60.1475   89.0783    6.9958 O.3     1  UNL1       -0.3288
     22 C          59.2323   89.9294    6.1663 C.3     1  UNL1        0.2610
     23 O          57.7478   89.7279    6.2412 O.3     1  UNL1       -0.3583
     24 H          57.3061   90.3545    5.6470 H       1  UNL1        0.2130
     25 C          59.8016   90.9820    5.2618 C.3     1  UNL1        0.1810
     26 O          61.2881   91.1286    5.1242 O.3     1  UNL1       -0.3784
     27 H          61.7309   90.4708    5.6829 H       1  UNL1        0.2106
     28 C          58.8844   91.8879    4.4950 C.3     1  UNL1        0.0863
     29 N          57.5956   92.3461    5.1107 N.3     1  UNL1       -0.2953
     30 C          56.3060   91.6784    4.7352 C.3     1  UNL1        0.0859
     31 H          57.4938   93.3343    4.8795 H       1  UNL1        0.1233
     32 C          59.2560   92.3357    3.1125 C.3     1  UNL1        0.0184
     33 C          61.4431   93.1655    1.9820 C.3     1  UNL1        0.0000
     34 C          60.2982   93.3977    2.9228 C.3     1  UNL1        0.0015
     35 C          61.9300   90.5092   11.0458 C.3     1  UNL1        0.1472
     36 C          60.4717   90.8503   11.1291 C.3     1  UNL1        0.0323
     37 C          59.5329   89.9520   11.8786 C.3     1  UNL1        0.0027
     38 O          62.8752   91.4267   10.3284 O.3     1  UNL1       -0.3535
     39 C          64.3344   91.4211   10.6758 C.3     1  UNL1        0.1448
     40 C          65.0377   92.7105   10.9807 C.3     1  UNL1        0.0642
     41 C          66.3805   92.6926   11.6490 C.3     1  UNL1        0.1469
     42 C          66.4897   92.3432   13.1037 C.3     1  UNL1        0.1642
     43 O          65.2618   92.3260   13.9651 O.3     1  UNL1       -0.3796
     44 H          65.5063   92.0824   14.8716 H       1  UNL1        0.2105
     45 C          67.8267   92.0111   13.6969 C.3     1  UNL1        0.1397
     46 C          68.0615   92.1947   15.1670 C.3     1  UNL1        0.0344
     47 O          68.9291   91.4954   12.8201 O.3     1  UNL1       -0.3819
     48 H          69.7200   91.3320   13.3574 H       1  UNL1        0.2104
     49 O          67.6141   93.0240   10.8626 O.3     1  UNL1       -0.3509
     50 C          67.5011   93.4126    9.4183 C.3     1  UNL1        0.1741
     51 O          63.9725   83.8317   13.0818 O.3     1  UNL1       -0.3330
     52 C          63.1069   82.9871   13.9691 C.3     1  UNL1        0.2318
     53 C          61.8362   83.5502   14.5332 C.3     1  UNL1        0.0663
     54 O          63.5120   81.5795   14.2923 O.3     1  UNL1       -0.3601
     55 H          62.8473   81.1770   14.8729 H       1  UNL1        0.2129
@<TRIPOS>BOND
     1    33    34    1
     2    34    32    1
     3    28    32    1
     4    28    29    1
     5    29    30    1
     6    28    25    1
     7    25    26    1
     8    25    22    1
     9    22    23    1
    10    22    21    1
    11    21    20    1
    12    20    19    1
    13    19    18    1
    14    18    14    1
    15    14    15    1
    16    14    16    1
    17    14     1    1
    18     1     2    1
    19     3     2    1
    20     3    35    1
    21    35    36    1
    22    36    37    1
    23    35    38    1
    24    38    39    1
    25    39    40    1
    26    41    40    1
    27    41    49    1
    28    49    50    1
    29    41    42    1
    30    42    43    1
    31    42    45    1
    32    45    46    1
    33    45    47    1
    34     3     4    1
    35     4     5    1
    36     4     6    1
    37     6     7    1
    38     7     8    1
    39     8     9    1
    40     8    10    1
    41    10    51    1
    42    51    52    1
    43    52    53    1
    44    52    54    1
    45    10    11    1
    46    11    12    1
    47    11     1    1
    48    29    31    1
    49    26    27    1
    50    23    24    1
    51    16    17    1
    52    43    44    1
    53    47    48    1
    54     5    13    1
    55    54    55    1
@<TRIPOS>MOLECULE
*****
 55 55 0 0 0
SMALL
GASTEIGER

@<TRIPOS>ATOM
      1 C          63.4830   85.6024   13.6063 C.3     1  UNL1        0.1420
      2 O          63.0245   86.8293   12.8753 O.3     1  UNL1       -0.3486
      3 C          62.6531   87.2703   11.4905 C.3     1  UNL1        0.1979
      4 C          62.5426   86.7190   10.0999 C.3     1  UNL1        0.2625
      5 O          62.0856   87.7925    9.1572 O.3     1  UNL1       -0.3582
      6 O          62.7448   85.4333    9.3542 O.3     1  UNL1       -0.3287
      7 C          63.1649   84.0149    9.6022 C.3     1  UNL1        0.1472
      8 C          63.6065   83.1274   10.7280 C.3     1  UNL1        0.0571
      9 C          63.8772   81.7441   10.2149 C.3     1  UNL1        0.0051
     10 C          63.8629   83.1862   12.2047 C.3     1  UNL1        0.1225
     11 C          63.8141   84.1636   13.3414 C.3     1  UNL1        0.0569
     12 C          64.2268   83.4891   14.6161 C.3     1  UNL1        0.0051
     13 H          62.0169   87.4279    8.2610 H       1  UNL1        0.2130
     14 C          63.6693   85.9122   15.0622 C.3     1  UNL1        0.1133
     15 C          62.6522   84.8675   15.4146 C.3     1  UNL1        0.0318
     16 O          63.8555   86.2219   16.5180 O.3     1  UNL1       -0.3844
     17 H          64.7048   85.8627   16.8189 H       1  UNL1        0.2103
     18 C          64.6863   86.9569   14.7097 C.3     1  UNL1        0.0319
     19 C          64.3884   88.4064   14.9548 C.3     1  UNL1        0.0346
     20 C          63.3823   88.7998   15.9955 C.3     1  UNL1        0.1450
     21 O          63.1836   90.2467   16.3374 O.3     1  UNL1       -0.3288
     22 C          63.8699   91.3091   15.5309 C.3     1  UNL1        0.2610
     23 O          63.4605   91.5527   14.1086 O.3     1  UNL1       -0.3583
     24 H          63.9995   92.2674   13.7349 H       1  UNL1        0.2130
     25 C          64.9655   92.1278   16.1467 C.3     1  UNL1        0.1810
     26 O          64.6618   93.0460   17.2933 O.3     1  UNL1       -0.3784
     27 H          63.7180   92.9907   17.5105 H       1  UNL1        0.2106
     28 C          66.3650   92.0284   15.6160 C.3     1  UNL1        0.0863
     29 N          66.6295   91.3030   14.3299 N.3     1  UNL1       -0.2953
     30 C          67.9150   91.5308   13.5911 C.3     1  UNL1        0.0859
     31 H          65.8745   91.5519   13.6908 H       1  UNL1        0.1233
     32 C          67.4998   92.6542   16.3713 C.3     1  UNL1        0.0184
     33 C          69.6800   93.9987   15.9366 C.3     1  UNL1        0.0000
     34 C          68.1906   93.8657   15.8190 C.3     1  UNL1        0.0015
     35 C          62.2717   88.7211   11.4991 C.3     1  UNL1        0.1472
     36 C          61.1180   89.1883   12.3361 C.3     1  UNL1        0.0323
     37 C          59.8950   89.7551   11.6780 C.3     1  UNL1        0.0027
     38 O          63.0440   89.7044   10.6706 O.3     1  UNL1       -0.3535
     39 C          63.4713   91.0136   11.2651 C.3     1  UNL1        0.1448
     40 C          64.2066   92.0148   10.4242 C.3     1  UNL1        0.0642
     41 C          65.3838   92.7508   10.9921 C.3     1  UNL1        0.1469
     42 C          66.5740   93.0429   10.1271 C.3     1  UNL1        0.1642
     43 O          67.6834   92.0397   10.0142 O.3     1  UNL1       -0.3796
     44 H          68.3699   92.3822    9.4207 H       1  UNL1        0.2105
     45 C          66.6548   94.3382    9.3751 C.3     1  UNL1        0.1397
     46 C          67.7880   94.5834    8.4234 C.3     1  UNL1        0.0344
     47 O          65.6024   95.3883    9.5747 O.3     1  UNL1       -0.3819
     48 H          65.8030   96.1569    9.0180 H       1  UNL1        0.2104
     49 O          65.3709   93.1947   12.4248 O.3     1  UNL1       -0.3509
     50 C          66.1706   94.3917   12.8464 C.3     1  UNL1        0.1741
     51 O          64.3090   81.8430   12.7018 O.3     1  UNL1       -0.3330
     52 C          63.3494   80.9619   13.4454 C.3     1  UNL1        0.2318
     53 C          61.8744   81.0878   13.2038 C.3     1  UNL1        0.0663
     54 O          63.8648   79.9551   14.4306 O.3     1  UNL1       -0.3601
     55 H          63.1189   79.4722   14.8196 H       1  UNL1        0.2129
@<TRIPOS>BOND
     1    33    34    1
     2    34    32    1
     3    28    32    1
     4    28    29    1
     5    29    30    1
     6    28    25    1
     7    25    26    1
     8    25    22    1
     9    22    23    1
    10    22    21    1
    11    21    20    1
    12    20    19    1
    13    19    18    1
    14    18    14    1
    15    14    15    1
    16    14    16    1
    17    14     1    1
    18     1     2    1
    19     3     2    1
    20     3    35    1
    21    35    36    1
    22    36    37    1
    23    35    38    1
    24    38    39    1
    25    39    40    1
    26    41    40    1
    27    41    49    1
    28    49    50    1
    29    41    42    1
    30    42    43    1
    31    42    45    1
    32    45    46    1
    33    45    47    1
    34     3     4    1
    35     4     5    1
    36     4     6    1
    37     6     7    1
    38     7     8    1
    39     8     9    1
    40     8    10    1
    41    10    51    1
    42    51    52    1
    43    52    53    1
    44    52    54    1
    45    10    11    1
    46    11    12    1
    47    11     1    1
    48    29    31    1
    49    26    27    1
    50    23    24    1
    51    16    17    1
    52    43    44    1
    53    47    48    1
    54     5    13    1
    55    54    55    1
@<TRIPOS>MOLECULE
*****
 55 55 0 0 0
SMALL
GASTEIGER

@<TRIPOS>ATOM
      1 C          62.2819   86.6120   10.2294 C.3     1  UNL1        0.1420
      2 O          62.5148   88.0466   10.6005 O.3     1  UNL1       -0.3486
      3 C          63.0093   88.8698   11.7528 C.3     1  UNL1        0.1979
      4 C          63.5343   88.6964   13.1471 C.3     1  UNL1        0.2625
      5 O          63.8490   90.0347   13.7470 O.3     1  UNL1       -0.3582
      6 O          63.8440   87.6075   14.1312 O.3     1  UNL1       -0.3287
      7 C          63.7935   86.1126   14.2445 C.3     1  UNL1        0.1472
      8 C          63.4065   84.9112   13.4339 C.3     1  UNL1        0.0571
      9 C          63.6337   83.6604   14.2300 C.3     1  UNL1        0.0051
     10 C          62.8640   84.5656   12.0789 C.3     1  UNL1        0.1225
     11 C          62.4199   85.2373   10.8134 C.3     1  UNL1        0.0569
     12 C          61.9722   84.2094    9.8168 C.3     1  UNL1        0.0051
     13 H          64.1876   89.9136   14.6479 H       1  UNL1        0.2130
     14 C          61.7400   86.5246    8.8335 C.3     1  UNL1        0.1133
     15 C          62.8593   85.5997    8.4569 C.3     1  UNL1        0.0318
     16 O          61.1980   86.4371    7.4376 O.3     1  UNL1       -0.3844
     17 H          60.3998   85.8859    7.4346 H       1  UNL1        0.2103
     18 C          60.6207   87.4494    9.2101 C.3     1  UNL1        0.0319
     19 C          59.7134   87.9996    8.1499 C.3     1  UNL1        0.0346
     20 C          59.8531   89.4269    7.7100 C.3     1  UNL1        0.1450
     21 O          59.9728   89.7537    6.2510 O.3     1  UNL1       -0.3288
     22 C          58.9417   90.6190    5.5892 C.3     1  UNL1        0.2610
     23 O          57.5017   90.1992    5.5839 O.3     1  UNL1       -0.3583
     24 H          56.9723   90.8656    5.1186 H       1  UNL1        0.2130
     25 C          59.3507   91.9043    4.9326 C.3     1  UNL1        0.1810
     26 O          58.5399   93.1477    5.1481 O.3     1  UNL1       -0.3784
     27 H          57.7919   92.9487    5.7327 H       1  UNL1        0.2106
     28 C          60.5704   91.9459    4.0605 C.3     1  UNL1        0.0863
     29 N          61.7131   91.0107    4.3240 N.3     1  UNL1       -0.2953
     30 C          62.9305   91.0486    3.4485 C.3     1  UNL1        0.0859
     31 H          61.3381   90.0639    4.2661 H       1  UNL1        0.1233
     32 C          60.6473   92.9228    2.9248 C.3     1  UNL1        0.0184
     33 C          59.5506   93.9059    0.7846 C.3     1  UNL1        0.0000
     34 C          59.7476   92.7626    1.7354 C.3     1  UNL1        0.0015
     35 C          62.9650   90.3268   11.3988 C.3     1  UNL1        0.1472
     36 C          61.8049   90.8748   10.6217 C.3     1  UNL1        0.0323
     37 C          60.4023   90.6215   11.0891 C.3     1  UNL1        0.0027
     38 O          64.0806   91.2357   11.8220 O.3     1  UNL1       -0.3535
     39 C          64.7289   92.1443   10.8199 C.3     1  UNL1        0.1448
     40 C          66.0451   92.7910   11.1350 C.3     1  UNL1        0.0642
     41 C          66.2063   93.5883   12.3953 C.3     1  UNL1        0.1469
     42 C          66.3609   92.8865   13.7121 C.3     1  UNL1        0.1642
     43 O          65.1586   92.3146   14.4029 O.3     1  UNL1       -0.3796
     44 H          65.4316   91.8986   15.2356 H       1  UNL1        0.2105
     45 C          67.7180   92.7568   14.3379 C.3     1  UNL1        0.1397
     46 C          68.0263   93.4780   15.6165 C.3     1  UNL1        0.0344
     47 O          68.7667   91.9058   13.6853 O.3     1  UNL1       -0.3819
     48 H          69.5789   91.9306   14.2150 H       1  UNL1        0.2104
     49 O          66.2128   95.0872   12.3391 O.3     1  UNL1       -0.3509
     50 C          66.4558   95.7878   11.0352 C.3     1  UNL1        0.1741
     51 O          62.7201   83.0781   11.9480 O.3     1  UNL1       -0.3330
     52 C          63.7505   82.2883   11.1967 C.3     1  UNL1        0.2318
     53 C          63.3811   80.9746   10.5739 C.3     1  UNL1        0.0663
     54 O          65.1501   82.8121   11.0680 O.3     1  UNL1       -0.3601
     55 H          65.6845   82.1845   10.5566 H       1  UNL1        0.2129
@<TRIPOS>BOND
     1    33    34    1
     2    34    32    1
     3    28    32    1
     4    28    29    1
     5    29    30    1
     6    28    25    1
     7    25    26    1
     8    25    22    1
     9    22    23    1
    10    22    21    1
    11    21    20    1
    12    20    19    1
    13    19    18    1
    14    18    14    1
    15    14    15    1
    16    14    16    1
    17    14     1    1
    18     1     2    1
    19     3     2    1
    20     3    35    1
    21    35    36    1
    22    36    37    1
    23    35    38    1
    24    38    39    1
    25    39    40    1
    26    41    40    1
    27    41    49    1
    28    49    50    1
    29    41    42    1
    30    42    43    1
    31    42    45    1
    32    45    46    1
    33    45    47    1
    34     3     4    1
    35     4     5    1
    36     4     6    1
    37     6     7    1
    38     7     8    1
    39     8     9    1
    40     8    10    1
    41    10    51    1
    42    51    52    1
    43    52    53    1
    44    52    54    1
    45    10    11    1
    46    11    12    1
    47    11     1    1
    48    29    31    1
    49    26    27    1
    50    23    24    1
    51    16    17    1
    52    43    44    1
    53    47    48    1
    54     5    13    1
    55    54    55    1
@<TRIPOS>MOLECULE
*****
 55 55 0 0 0
SMALL
GASTEIGER

@<TRIPOS>ATOM
      1 C          63.3182   85.7098   13.4156 C.3     1  UNL1        0.1420
      2 O          62.7350   86.8364   12.6153 O.3     1  UNL1       -0.3486
      3 C          62.3624   87.1687   11.2009 C.3     1  UNL1        0.1979
      4 C          62.3746   86.5511    9.8340 C.3     1  UNL1        0.2625
      5 O          61.8203   87.5173    8.8294 O.3     1  UNL1       -0.3582
      6 O          62.7660   85.2725    9.1543 O.3     1  UNL1       -0.3287
      7 C          63.3534   83.9312    9.4798 C.3     1  UNL1        0.1472
      8 C          63.8620   83.1549   10.6583 C.3     1  UNL1        0.0571
      9 C          64.3252   81.7980   10.2175 C.3     1  UNL1        0.0051
     10 C          64.0538   83.3068   12.1382 C.3     1  UNL1        0.1225
     11 C          63.8390   84.3158   13.2271 C.3     1  UNL1        0.0569
     12 C          64.2864   83.7529   14.5435 C.3     1  UNL1        0.0051
     13 H          61.8317   87.1104    7.9490 H       1  UNL1        0.2130
     14 C          63.4093   86.1005   14.8609 C.3     1  UNL1        0.1133
     15 C          62.5645   84.9184   15.2338 C.3     1  UNL1        0.0318
     16 O          63.5005   86.4912   16.3063 O.3     1  UNL1       -0.3844
     17 H          64.3875   86.2864   16.6413 H       1  UNL1        0.2103
     18 C          64.2542   87.2825   14.4881 C.3     1  UNL1        0.0319
     19 C          64.1994   88.5337   15.3135 C.3     1  UNL1        0.0346
     20 C          64.0504   89.8678   14.6442 C.3     1  UNL1        0.1450
     21 O          65.2021   90.4600   13.8873 O.3     1  UNL1       -0.3288
     22 C          65.7214   91.8185   14.2540 C.3     1  UNL1        0.2610
     23 O          65.1472   92.5482   15.4320 O.3     1  UNL1       -0.3583
     24 H          65.5912   93.4051   15.5294 H       1  UNL1        0.2130
     25 C          66.8151   92.4475   13.4426 C.3     1  UNL1        0.1810
     26 O          68.2378   92.3666   13.9109 O.3     1  UNL1       -0.3784
     27 H          68.2753   91.8779   14.7480 H       1  UNL1        0.2106
     28 C          66.4861   93.1574   12.1628 C.3     1  UNL1        0.0863
     29 N          65.9276   94.5492   12.1993 N.3     1  UNL1       -0.2953
     30 C          66.1891   95.4923   11.0626 C.3     1  UNL1        0.0859
     31 H          66.2966   94.9925   13.0406 H       1  UNL1        0.1233
     32 C          66.7154   92.4756   10.8466 C.3     1  UNL1        0.0184
     33 C          68.4784   92.3920    8.9401 C.3     1  UNL1        0.0000
     34 C          68.1133   92.1938   10.3814 C.3     1  UNL1        0.0015
     35 C          61.7996   88.5575   11.1313 C.3     1  UNL1        0.1472
     36 C          62.6832   89.7391   11.4014 C.3     1  UNL1        0.0323
     37 C          63.1208   90.6224   10.2707 C.3     1  UNL1        0.0027
     38 O          60.3534   88.7645   10.7916 O.3     1  UNL1       -0.3535
     39 C          59.9623   89.7923    9.7715 C.3     1  UNL1        0.1448
     40 C          60.4149   89.6470    8.3488 C.3     1  UNL1        0.0642
     41 C          59.4092   89.4026    7.2631 C.3     1  UNL1        0.1469
     42 C          59.3960   90.2750    6.0429 C.3     1  UNL1        0.1642
     43 O          60.6778   90.5837    5.3277 O.3     1  UNL1       -0.3796
     44 H          60.4935   91.1558    4.5662 H       1  UNL1        0.2105
     45 C          58.1008   90.8386    5.5379 C.3     1  UNL1        0.1397
     46 C          58.1055   92.0373    4.6361 C.3     1  UNL1        0.0344
     47 O          56.8011   90.2037    5.9348 O.3     1  UNL1       -0.3819
     48 H          56.0667   90.6872    5.5251 H       1  UNL1        0.2104
     49 O          58.4168   88.2860    7.3974 O.3     1  UNL1       -0.3509
     50 C          58.8852   86.9038    7.7440 C.3     1  UNL1        0.1741
     51 O          64.6482   82.0537   12.7098 O.3     1  UNL1       -0.3330
     52 C          63.7689   81.0543   13.4012 C.3     1  UNL1        0.2318
     53 C          62.3263   80.9277   13.0105 C.3     1  UNL1        0.0663
     54 O          64.3322   80.1817   14.4834 O.3     1  UNL1       -0.3601
     55 H          63.6363   79.5972   14.8225 H       1  UNL1        0.2129
@<TRIPOS>BOND
     1    33    34    1
     2    34    32    1
     3    28    32    1
     4    28    29    1
     5    29    30    1
     6    28    25    1
     7    25    26    1
     8    25    22    1
     9    22    23    1
    10    22    21    1
    11    21    20    1
    12    20    19    1
    13    19    18    1
    14    18    14    1
    15    14    15    1
    16    14    16    1
    17    14     1    1
    18     1     2    1
    19     3     2    1
    20     3    35    1
    21    35    36    1
    22    36    37    1
    23    35    38    1
    24    38    39    1
    25    39    40    1
    26    41    40    1
    27    41    49    1
    28    49    50    1
    29    41    42    1
    30    42    43    1
    31    42    45    1
    32    45    46    1
    33    45    47    1
    34     3     4    1
    35     4     5    1
    36     4     6    1
    37     6     7    1
    38     7     8    1
    39     8     9    1
    40     8    10    1
    41    10    51    1
    42    51    52    1
    43    52    53    1
    44    52    54    1
    45    10    11    1
    46    11    12    1
    47    11     1    1
    48    29    31    1
    49    26    27    1
    50    23    24    1
    51    16    17    1
    52    43    44    1
    53    47    48    1
    54     5    13    1
    55    54    55    1
@<TRIPOS>MOLECULE
*****
 55 55 0 0 0
SMALL
GASTEIGER

@<TRIPOS>ATOM
      1 C          62.5272   86.5004   11.1957 C.3     1  UNL1        0.1420
      2 O          62.9055   87.9038   11.5664 O.3     1  UNL1       -0.3486
      3 C          63.4855   88.6717   12.7169 C.3     1  UNL1        0.1979
      4 C          63.9959   88.4450   14.1090 C.3     1  UNL1        0.2625
      5 O          64.4468   89.7441   14.7082 O.3     1  UNL1       -0.3582
      6 O          64.1978   87.3295   15.0914 O.3     1  UNL1       -0.3287
      7 C          63.9967   85.8473   15.2043 C.3     1  UNL1        0.1472
      8 C          63.4868   84.6919   14.3949 C.3     1  UNL1        0.0571
      9 C          63.5895   83.4239   15.1895 C.3     1  UNL1        0.0051
     10 C          62.9066   84.4041   13.0419 C.3     1  UNL1        0.1225
     11 C          62.5276   85.1183   11.7785 C.3     1  UNL1        0.0569
     12 C          61.9742   84.1417   10.7834 C.3     1  UNL1        0.0051
     13 H          64.7751   89.5886   15.6076 H       1  UNL1        0.2130
     14 C          61.9735   86.4694    9.8020 C.3     1  UNL1        0.1133
     15 C          63.1059   85.5848    9.3718 C.3     1  UNL1        0.0318
     16 O          61.4198   86.4383    8.4083 O.3     1  UNL1       -0.3844
     17 H          60.6319   85.8730    8.3859 H       1  UNL1        0.2103
     18 C          60.8410   87.3539   10.2322 C.3     1  UNL1        0.0319
     19 C          59.7608   87.7170    9.2570 C.3     1  UNL1        0.0346
     20 C          59.7400   89.0816    8.6345 C.3     1  UNL1        0.1450
     21 O          60.2364   89.2739    7.2321 O.3     1  UNL1       -0.3288
     22 C          59.3683   89.9551    6.2160 C.3     1  UNL1        0.2610
     23 O          57.8949   89.6766    6.1810 O.3     1  UNL1       -0.3583
     24 H          57.4848   90.1942    5.4704 H       1  UNL1        0.2130
     25 C          59.9738   90.9147    5.2349 C.3     1  UNL1        0.1810
     26 O          61.3911   90.7283    4.7805 O.3     1  UNL1       -0.3784
     27 H          61.7693   89.9469    5.2134 H       1  UNL1        0.2106
     28 C          59.1620   92.0608    4.7082 C.3     1  UNL1        0.0863
     29 N          57.7712   92.2925    5.2202 N.3     1  UNL1       -0.2953
     30 C          56.6035   91.6411    4.5405 C.3     1  UNL1        0.0859
     31 H          57.6084   93.2988    5.1853 H       1  UNL1        0.1233
     32 C          59.7408   92.9751    3.6695 C.3     1  UNL1        0.0184
     33 C          60.5629   92.9393    1.2052 C.3     1  UNL1        0.0000
     34 C          59.4756   92.7212    2.2151 C.3     1  UNL1        0.0015
     35 C          63.5874   90.1261   12.3637 C.3     1  UNL1        0.1472
     36 C          62.4621   90.8022   11.6382 C.3     1  UNL1        0.0323
     37 C          62.4596   90.8535   10.1391 C.3     1  UNL1        0.0027
     38 O          64.8146   90.9040   12.7361 O.3     1  UNL1       -0.3535
     39 C          64.8779   92.3785   12.4676 C.3     1  UNL1        0.1448
     40 C          65.3145   92.8777   11.1221 C.3     1  UNL1        0.0642
     41 C          66.6322   93.5787   10.9736 C.3     1  UNL1        0.1469
     42 C          67.7885   92.8733   10.3289 C.3     1  UNL1        0.1642
     43 O          68.6119   91.9027   11.1226 O.3     1  UNL1       -0.3796
     44 H          69.3135   91.5386   10.5605 H       1  UNL1        0.2105
     45 C          68.1213   93.1385    8.8906 C.3     1  UNL1        0.1397
     46 C          67.7244   94.4386    8.2564 C.3     1  UNL1        0.0344
     47 O          68.8511   92.1038    8.0864 O.3     1  UNL1       -0.3819
     48 H          68.9858   92.4318    7.1835 H       1  UNL1        0.2104
     49 O          66.7939   94.9850   11.4697 O.3     1  UNL1       -0.3509
     50 C          65.8307   96.0493   11.0344 C.3     1  UNL1        0.1741
     51 O          62.6124   82.9389   12.9111 O.3     1  UNL1       -0.3330
     52 C          63.5530   82.0500   12.1528 C.3     1  UNL1        0.2318
     53 C          63.0839   80.7169   11.6502 C.3     1  UNL1        0.0663
     54 O          64.9628   82.4941   11.8972 O.3     1  UNL1       -0.3601
     55 H          65.4326   81.8076   11.3982 H       1  UNL1        0.2129
@<TRIPOS>BOND
     1    33    34    1
     2    34    32    1
     3    28    32    1
     4    28    29    1
     5    29    30    1
     6    28    25    1
     7    25    26    1
     8    25    22    1
     9    22    23    1
    10    22    21    1
    11    21    20    1
    12    20    19    1
    13    19    18    1
    14    18    14    1
    15    14    15    1
    16    14    16    1
    17    14     1    1
    18     1     2    1
    19     3     2    1
    20     3    35    1
    21    35    36    1
    22    36    37    1
    23    35    38    1
    24    38    39    1
    25    39    40    1
    26    41    40    1
    27    41    49    1
    28    49    50    1
    29    41    42    1
    30    42    43    1
    31    42    45    1
    32    45    46    1
    33    45    47    1
    34     3     4    1
    35     4     5    1
    36     4     6    1
    37     6     7    1
    38     7     8    1
    39     8     9    1
    40     8    10    1
    41    10    51    1
    42    51    52    1
    43    52    53    1
    44    52    54    1
    45    10    11    1
    46    11    12    1
    47    11     1    1
    48    29    31    1
    49    26    27    1
    50    23    24    1
    51    16    17    1
    52    43    44    1
    53    47    48    1
    54     5    13    1
    55    54    55    1
@<TRIPOS>MOLECULE
*****
 55 55 0 0 0
SMALL
GASTEIGER

@<TRIPOS>ATOM
      1 C          62.8736   88.7824   12.5268 C.3     1  UNL1        0.1420
      2 O          61.9161   89.0212   11.3972 O.3     1  UNL1       -0.3486
      3 C          61.1382   88.2549   10.3688 C.3     1  UNL1        0.1979
      4 C          60.9038   86.8421    9.9227 C.3     1  UNL1        0.2625
      5 O          59.9489   86.8208    8.7662 O.3     1  UNL1       -0.3582
      6 O          61.3228   85.4437   10.2678 O.3     1  UNL1       -0.3287
      7 C          62.1991   84.7142   11.2426 C.3     1  UNL1        0.1472
      8 C          63.1225   84.9949   12.3908 C.3     1  UNL1        0.0571
      9 C          63.6851   83.7101   12.9226 C.3     1  UNL1        0.0051
     10 C          63.6610   86.1544   13.1753 C.3     1  UNL1        0.1225
     11 C          63.5628   87.6502   13.2290 C.3     1  UNL1        0.0569
     12 C          64.4266   88.1818   14.3341 C.3     1  UNL1        0.0051
     13 H          59.8029   85.9043    8.4842 H       1  UNL1        0.2130
     14 C          63.2660   90.0885   13.1515 C.3     1  UNL1        0.1133
     15 C          62.4060   89.7780   14.3407 C.3     1  UNL1        0.0318
     16 O          63.6584   91.3945   13.7763 O.3     1  UNL1       -0.3844
     17 H          64.5711   91.3370   14.0996 H       1  UNL1        0.2103
     18 C          64.1260   90.3989   11.9624 C.3     1  UNL1        0.0319
     19 C          63.7632   91.5329   11.0500 C.3     1  UNL1        0.0346
     20 C          64.7629   92.6137   10.7629 C.3     1  UNL1        0.1450
     21 O          66.2215   92.2787   10.6618 O.3     1  UNL1       -0.3288
     22 C          67.1336   92.5410   11.8234 C.3     1  UNL1        0.2610
     23 O          68.5223   91.9740   11.8295 O.3     1  UNL1       -0.3583
     24 H          68.9749   92.2360   12.6464 H       1  UNL1        0.2130
     25 C          66.6569   93.3702   12.9789 C.3     1  UNL1        0.1810
     26 O          66.1796   94.7734   12.7486 O.3     1  UNL1       -0.3784
     27 H          66.2443   94.9861   11.8044 H       1  UNL1        0.2106
     28 C          66.6575   92.7961   14.3647 C.3     1  UNL1        0.0863
     29 N          65.4586   92.9704   15.2492 N.3     1  UNL1       -0.2953
     30 C          65.4550   92.3870   16.6311 C.3     1  UNL1        0.0859
     31 H          64.6659   92.5611   14.7548 H       1  UNL1        0.1233
     32 C          67.8569   92.0478   14.8660 C.3     1  UNL1        0.0184
     33 C          68.9681   94.0809   16.0415 C.3     1  UNL1        0.0000
     34 C          69.0902   92.7964   15.2767 C.3     1  UNL1        0.0015
     35 C          60.3434   89.2002    9.5173 C.3     1  UNL1        0.1472
     36 C          59.7074   90.4108   10.1336 C.3     1  UNL1        0.0323
     37 C          59.3063   90.3936   11.5789 C.3     1  UNL1        0.0027
     38 O          60.1846   88.9347    8.0496 O.3     1  UNL1       -0.3535
     39 C          59.4115   89.8935    7.1934 C.3     1  UNL1        0.1448
     40 C          59.6749   89.9619    5.7182 C.3     1  UNL1        0.0642
     41 C          59.5387   91.2672    4.9918 C.3     1  UNL1        0.1469
     42 C          60.6426   91.7456    4.0958 C.3     1  UNL1        0.1642
     43 O          62.0629   91.3585    4.3833 O.3     1  UNL1       -0.3796
     44 H          62.6462   91.7481    3.7133 H       1  UNL1        0.2105
     45 C          60.3260   92.6111    2.9123 C.3     1  UNL1        0.1397
     46 C          61.4116   93.4129    2.2577 C.3     1  UNL1        0.0344
     47 O          58.9237   92.6750    2.3835 O.3     1  UNL1       -0.3819
     48 H          58.8923   93.2756    1.6225 H       1  UNL1        0.2104
     49 O          58.2988   92.0941    5.1613 O.3     1  UNL1       -0.3509
     50 C          56.9493   91.4745    4.9498 C.3     1  UNL1        0.1741
     51 O          64.5921   85.6628   14.2438 O.3     1  UNL1       -0.3330
     52 C          64.0500   84.9106   15.4229 C.3     1  UNL1        0.2318
     53 C          62.8918   85.4651   16.1980 C.3     1  UNL1        0.0663
     54 O          64.6662   83.6041   15.8269 O.3     1  UNL1       -0.3601
     55 H          64.2004   83.2529   16.6019 H       1  UNL1        0.2129
@<TRIPOS>BOND
     1    33    34    1
     2    34    32    1
     3    28    32    1
     4    28    29    1
     5    29    30    1
     6    28    25    1
     7    25    26    1
     8    25    22    1
     9    22    23    1
    10    22    21    1
    11    21    20    1
    12    20    19    1
    13    19    18    1
    14    18    14    1
    15    14    15    1
    16    14    16    1
    17    14     1    1
    18     1     2    1
    19     3     2    1
    20     3    35    1
    21    35    36    1
    22    36    37    1
    23    35    38    1
    24    38    39    1
    25    39    40    1
    26    41    40    1
    27    41    49    1
    28    49    50    1
    29    41    42    1
    30    42    43    1
    31    42    45    1
    32    45    46    1
    33    45    47    1
    34     3     4    1
    35     4     5    1
    36     4     6    1
    37     6     7    1
    38     7     8    1
    39     8     9    1
    40     8    10    1
    41    10    51    1
    42    51    52    1
    43    52    53    1
    44    52    54    1
    45    10    11    1
    46    11    12    1
    47    11     1    1
    48    29    31    1
    49    26    27    1
    50    23    24    1
    51    16    17    1
    52    43    44    1
    53    47    48    1
    54     5    13    1
    55    54    55    1
@<TRIPOS>MOLECULE
*****
 55 55 0 0 0
SMALL
GASTEIGER

@<TRIPOS>ATOM
      1 C          63.1460   86.7030   12.6932 C.3     1  UNL1        0.1420
      2 O          63.6774   87.9110   13.4062 O.3     1  UNL1       -0.3486
      3 C          63.5822   89.4072   13.3599 C.3     1  UNL1        0.1979
      4 C          62.9047   90.4917   12.5757 C.3     1  UNL1        0.2625
      5 O          63.2924   91.8355   13.1179 O.3     1  UNL1       -0.3582
      6 O          61.9621   90.6570   11.4207 O.3     1  UNL1       -0.3287
      7 C          61.1953   89.8257   10.4352 C.3     1  UNL1        0.1472
      8 C          60.9632   88.3869   10.0805 C.3     1  UNL1        0.0571
      9 C          60.0228   88.2909    8.9158 C.3     1  UNL1        0.0051
     10 C          61.3744   87.0137   10.5225 C.3     1  UNL1        0.1225
     11 C          62.2364   86.3488   11.5543 C.3     1  UNL1        0.0569
     12 C          62.1670   84.8585   11.3977 C.3     1  UNL1        0.0051
     13 H          62.8504   92.5306   12.6056 H       1  UNL1        0.2130
     14 C          63.6987   85.4553   13.3157 C.3     1  UNL1        0.1133
     15 C          64.3103   85.0704   12.0012 C.3     1  UNL1        0.0318
     16 O          64.2514   84.2075   13.9382 O.3     1  UNL1       -0.3844
     17 H          65.0003   84.4361   14.5107 H       1  UNL1        0.2103
     18 C          63.0871   85.8401   14.6302 C.3     1  UNL1        0.0319
     19 C          62.9521   84.8203   15.7218 C.3     1  UNL1        0.0346
     20 C          62.0029   83.6701   15.5604 C.3     1  UNL1        0.1450
     21 O          61.8332   83.0203   14.2192 O.3     1  UNL1       -0.3288
     22 C          61.6878   81.5306   14.1206 C.3     1  UNL1        0.2610
     23 O          60.4294   80.8668   14.5955 O.3     1  UNL1       -0.3583
     24 H          60.4988   79.9086   14.4612 H       1  UNL1        0.2130
     25 C          62.8010   80.7047   13.5471 C.3     1  UNL1        0.1810
     26 O          63.9032   80.2106   14.4364 O.3     1  UNL1       -0.3784
     27 H          63.7452   80.5115   15.3449 H       1  UNL1        0.2106
     28 C          62.8119   80.3731   12.0842 C.3     1  UNL1        0.0863
     29 N          62.6943   78.9458   11.6379 N.3     1  UNL1       -0.2953
     30 C          62.6715   78.6171   10.1745 C.3     1  UNL1        0.0859
     31 H          61.8272   78.5837   12.0346 H       1  UNL1        0.1233
     32 C          62.9404   81.4686   11.0678 C.3     1  UNL1        0.0184
     33 C          64.4722   82.9414    9.5730 C.3     1  UNL1        0.0000
     34 C          64.2837   82.0708   10.7798 C.3     1  UNL1        0.0015
     35 C          64.4333   90.0092   14.4385 C.3     1  UNL1        0.1472
     36 C          63.8927   90.1478   15.8308 C.3     1  UNL1        0.0323
     37 C          63.1738   88.9991   16.4740 C.3     1  UNL1        0.0027
     38 O          65.8250   90.4725   14.1247 O.3     1  UNL1       -0.3535
     39 C          66.3415   91.7501   14.7171 C.3     1  UNL1        0.1448
     40 C          66.4046   92.9932   13.8800 C.3     1  UNL1        0.0642
     41 C          66.7458   92.8994   12.4224 C.3     1  UNL1        0.1469
     42 C          65.9025   93.6125   11.4073 C.3     1  UNL1        0.1642
     43 O          64.7728   92.8930   10.7320 O.3     1  UNL1       -0.3796
     44 H          64.3333   93.4932   10.1096 H       1  UNL1        0.2105
     45 C          66.1888   95.0452   11.0677 C.3     1  UNL1        0.1397
     46 C          66.8153   95.3928    9.7498 C.3     1  UNL1        0.0344
     47 O          65.8488   96.1304   12.0458 O.3     1  UNL1       -0.3819
     48 H          66.0968   96.9909   11.6732 H       1  UNL1        0.2104
     49 O          67.9302   92.0924   11.9797 O.3     1  UNL1       -0.3509
     50 C          68.2708   91.9979   10.5219 C.3     1  UNL1        0.1741
     51 O          60.7152   85.9783    9.6601 O.3     1  UNL1       -0.3330
     52 C          61.2653   85.6765    8.2976 C.3     1  UNL1        0.2318
     53 C          62.7488   85.6453    8.0779 C.3     1  UNL1        0.0663
     54 O          60.3321   85.4058    7.1550 O.3     1  UNL1       -0.3601
     55 H          60.8468   85.2302    6.3518 H       1  UNL1        0.2129
@<TRIPOS>BOND
     1    33    34    1
     2    34    32    1
     3    28    32    1
     4    28    29    1
     5    29    30    1
     6    28    25    1
     7    25    26    1
     8    25    22    1
     9    22    23    1
    10    22    21    1
    11    21    20    1
    12    20    19    1
    13    19    18    1
    14    18    14    1
    15    14    15    1
    16    14    16    1
    17    14     1    1
    18     1     2    1
    19     3     2    1
    20     3    35    1
    21    35    36    1
    22    36    37    1
    23    35    38    1
    24    38    39    1
    25    39    40    1
    26    41    40    1
    27    41    49    1
    28    49    50    1
    29    41    42    1
    30    42    43    1
    31    42    45    1
    32    45    46    1
    33    45    47    1
    34     3     4    1
    35     4     5    1
    36     4     6    1
    37     6     7    1
    38     7     8    1
    39     8     9    1
    40     8    10    1
    41    10    51    1
    42    51    52    1
    43    52    53    1
    44    52    54    1
    45    10    11    1
    46    11    12    1
    47    11     1    1
    48    29    31    1
    49    26    27    1
    50    23    24    1
    51    16    17    1
    52    43    44    1
    53    47    48    1
    54     5    13    1
    55    54    55    1
@<TRIPOS>MOLECULE
*****
 55 55 0 0 0
SMALL
GASTEIGER

@<TRIPOS>ATOM
      1 C          63.1285   86.9123   12.3492 C.3     1  UNL1        0.1420
      2 O          63.7036   88.1510   12.9695 O.3     1  UNL1       -0.3486
      3 C          63.5736   89.6431   12.8891 C.3     1  UNL1        0.1979
      4 C          62.7991   90.6906   12.1456 C.3     1  UNL1        0.2625
      5 O          63.2114   92.0572   12.6064 O.3     1  UNL1       -0.3582
      6 O          61.7426   90.8033   11.0868 O.3     1  UNL1       -0.3287
      7 C          60.8984   89.9285   10.2081 C.3     1  UNL1        0.1472
      8 C          60.6615   88.4754    9.9208 C.3     1  UNL1        0.0571
      9 C          59.6117   88.3267    8.8599 C.3     1  UNL1        0.0051
     10 C          61.1429   87.1241   10.3593 C.3     1  UNL1        0.1225
     11 C          62.1171   86.5068   11.3183 C.3     1  UNL1        0.0569
     12 C          62.0629   85.0114   11.2132 C.3     1  UNL1        0.0051
     13 H          62.7062   92.7282   12.1211 H       1  UNL1        0.2130
     14 C          63.7661   85.6943   12.9493 C.3     1  UNL1        0.1133
     15 C          63.6719   84.9933   11.6266 C.3     1  UNL1        0.0318
     16 O          64.4037   84.4764   13.5494 O.3     1  UNL1       -0.3844
     17 H          65.3502   84.6402   13.6844 H       1  UNL1        0.2103
     18 C          63.8602   86.3954   14.2720 C.3     1  UNL1        0.0319
     19 C          63.6226   85.6346   15.5427 C.3     1  UNL1        0.0346
     20 C          62.3796   84.8102   15.7020 C.3     1  UNL1        0.1450
     21 O          62.4610   83.3132   15.6524 O.3     1  UNL1       -0.3288
     22 C          63.6906   82.6465   15.1105 C.3     1  UNL1        0.2610
     23 O          64.9971   82.7795   15.8352 O.3     1  UNL1       -0.3583
     24 H          65.6844   82.2920   15.3547 H       1  UNL1        0.2130
     25 C          63.6135   81.8468   13.8437 C.3     1  UNL1        0.1810
     26 O          64.7427   81.8933   12.8576 O.3     1  UNL1       -0.3784
     27 H          65.4379   82.4827   13.1896 H       1  UNL1        0.2106
     28 C          62.4072   81.0005   13.5633 C.3     1  UNL1        0.0863
     29 N          61.1761   81.1460   14.4080 N.3     1  UNL1       -0.2953
     30 C          59.9628   80.3142   14.1149 C.3     1  UNL1        0.0859
     31 H          60.8871   82.1220   14.3416 H       1  UNL1        0.1233
     32 C          62.4318   80.0089   12.4382 C.3     1  UNL1        0.0184
     33 C          62.8061   79.4666    9.9250 C.3     1  UNL1        0.0000
     34 C          62.8090   80.4522   11.0557 C.3     1  UNL1        0.0015
     35 C          64.5157   90.2932   13.8587 C.3     1  UNL1        0.1472
     36 C          64.3465   90.0711   15.3324 C.3     1  UNL1        0.0323
     37 C          63.0024   89.7002   15.8855 C.3     1  UNL1        0.0027
     38 O          65.6269   91.1654   13.3543 O.3     1  UNL1       -0.3535
     39 C          65.9102   92.4792   14.0203 C.3     1  UNL1        0.1448
     40 C          66.8333   93.4664   13.3694 C.3     1  UNL1        0.0642
     41 C          66.3981   94.1989   12.1349 C.3     1  UNL1        0.1469
     42 C          66.3355   93.4807   10.8194 C.3     1  UNL1        0.1642
     43 O          65.0313   92.9249   10.3297 O.3     1  UNL1       -0.3796
     44 H          65.1652   92.4951    9.4705 H       1  UNL1        0.2105
     45 C          67.5773   93.3182    9.9939 C.3     1  UNL1        0.1397
     46 C          68.0895   91.9456    9.6717 C.3     1  UNL1        0.0344
     47 O          68.3070   94.5282    9.4904 O.3     1  UNL1       -0.3819
     48 H          69.0816   94.2487    8.9779 H       1  UNL1        0.2104
     49 O          66.0255   95.6496   12.2156 O.3     1  UNL1       -0.3509
     50 C          65.7613   96.4272   10.9604 C.3     1  UNL1        0.1741
     51 O          60.4222   86.0509    9.5982 O.3     1  UNL1       -0.3330
     52 C          60.8737   85.6790    8.2170 C.3     1  UNL1        0.2318
     53 C          62.3383   85.5966    7.9036 C.3     1  UNL1        0.0663
     54 O          59.8608   85.3896    7.1492 O.3     1  UNL1       -0.3601
     55 H          60.3170   85.1673    6.3226 H       1  UNL1        0.2129
@<TRIPOS>BOND
     1    33    34    1
     2    34    32    1
     3    28    32    1
     4    28    29    1
     5    29    30    1
     6    28    25    1
     7    25    26    1
     8    25    22    1
     9    22    23    1
    10    22    21    1
    11    21    20    1
    12    20    19    1
    13    19    18    1
    14    18    14    1
    15    14    15    1
    16    14    16    1
    17    14     1    1
    18     1     2    1
    19     3     2    1
    20     3    35    1
    21    35    36    1
    22    36    37    1
    23    35    38    1
    24    38    39    1
    25    39    40    1
    26    41    40    1
    27    41    49    1
    28    49    50    1
    29    41    42    1
    30    42    43    1
    31    42    45    1
    32    45    46    1
    33    45    47    1
    34     3     4    1
    35     4     5    1
    36     4     6    1
    37     6     7    1
    38     7     8    1
    39     8     9    1
    40     8    10    1
    41    10    51    1
    42    51    52    1
    43    52    53    1
    44    52    54    1
    45    10    11    1
    46    11    12    1
    47    11     1    1
    48    29    31    1
    49    26    27    1
    50    23    24    1
    51    16    17    1
    52    43    44    1
    53    47    48    1
    54     5    13    1
    55    54    55    1
@<TRIPOS>MOLECULE
*****
 55 55 0 0 0
SMALL
GASTEIGER

@<TRIPOS>ATOM
      1 C          62.6394   88.6075   11.9920 C.3     1  UNL1        0.1420
      2 O          62.2920   87.7062   10.8444 O.3     1  UNL1       -0.3486
      3 C          62.3912   86.2637   10.4453 C.3     1  UNL1        0.1979
      4 C          62.8905   84.9548   10.9815 C.3     1  UNL1        0.2625
      5 O          62.6471   83.8641    9.9810 O.3     1  UNL1       -0.3582
      6 O          63.5565   84.3921   12.2021 O.3     1  UNL1       -0.3287
      7 C          64.0773   84.8387   13.5359 C.3     1  UNL1        0.1472
      8 C          64.2094   86.0859   14.3590 C.3     1  UNL1        0.0571
      9 C          64.8681   85.7688   15.6687 C.3     1  UNL1        0.0051
     10 C          63.8909   87.5498   14.2860 C.3     1  UNL1        0.1225
     11 C          63.2709   88.5456   13.3512 C.3     1  UNL1        0.0569
     12 C          63.2876   89.9112   13.9717 C.3     1  UNL1        0.0051
     13 H          62.9726   83.0219   10.3352 H       1  UNL1        0.2130
     14 C          62.2241   90.0153   11.6827 C.3     1  UNL1        0.1133
     15 C          60.9173   89.7833   12.3815 C.3     1  UNL1        0.0318
     16 O          61.8089   91.4231   11.3735 O.3     1  UNL1       -0.3844
     17 H          62.2975   92.0370   11.9438 H       1  UNL1        0.2103
     18 C          63.5310   90.2473   10.9840 C.3     1  UNL1        0.0319
     19 C          63.8630   91.6077   10.4466 C.3     1  UNL1        0.0346
     20 C          65.2415   92.1704   10.6291 C.3     1  UNL1        0.1450
     21 O          65.4189   93.6012   11.0427 O.3     1  UNL1       -0.3288
     22 C          66.1982   93.9330   12.2807 C.3     1  UNL1        0.2610
     23 O          66.1366   95.3162   12.8576 O.3     1  UNL1       -0.3583
     24 H          66.6937   95.3610   13.6504 H       1  UNL1        0.2130
     25 C          67.0393   92.8814   12.9417 C.3     1  UNL1        0.1810
     26 O          68.0630   92.1290   12.1443 O.3     1  UNL1       -0.3784
     27 H          68.0518   92.4422   11.2263 H       1  UNL1        0.2106
     28 C          66.8568   92.5824   14.4002 C.3     1  UNL1        0.0863
     29 N          65.6450   93.0903   15.1240 N.3     1  UNL1       -0.2953
     30 C          65.1209   92.3513   16.3195 C.3     1  UNL1        0.0859
     31 H          64.8869   93.1227   14.4423 H       1  UNL1        0.1233
     32 C          67.8858   91.7755   15.1350 C.3     1  UNL1        0.0184
     33 C          68.9707   93.9528   16.0474 C.3     1  UNL1        0.0000
     34 C          68.8605   92.4569   16.0492 C.3     1  UNL1        0.0015
     35 C          61.8061   86.0683    9.0779 C.3     1  UNL1        0.1472
     36 C          62.6784   85.6085    7.9476 C.3     1  UNL1        0.0323
     37 C          62.0951   84.7871    6.8363 C.3     1  UNL1        0.0027
     38 O          60.3487   86.3327    8.8411 O.3     1  UNL1       -0.3535
     39 C          59.8561   86.6310    7.4560 C.3     1  UNL1        0.1448
     40 C          58.8108   87.6855    7.2427 C.3     1  UNL1        0.0642
     41 C          59.2091   89.1288    7.1526 C.3     1  UNL1        0.1469
     42 C          58.5682   90.0214    6.1314 C.3     1  UNL1        0.1642
     43 O          57.0815   89.9893    5.9348 O.3     1  UNL1       -0.3796
     44 H          56.8332   90.6220    5.2427 H       1  UNL1        0.2105
     45 C          59.4140   90.9459    5.3069 C.3     1  UNL1        0.1397
     46 C          58.7641   91.9506    4.4023 C.3     1  UNL1        0.0344
     47 O          60.9098   90.8659    5.3870 O.3     1  UNL1       -0.3819
     48 H          61.3011   91.5277    4.7956 H       1  UNL1        0.2104
     49 O          60.2483   89.6797    8.0835 O.3     1  UNL1       -0.3509
     50 C          59.9553   89.7966    9.5500 C.3     1  UNL1        0.1741
     51 O          64.3318   88.2342   15.5459 O.3     1  UNL1       -0.3330
     52 C          63.3413   88.5015   16.6401 C.3     1  UNL1        0.2318
     53 C          62.7842   87.3628   17.4420 C.3     1  UNL1        0.0663
     54 O          62.9078   89.9074   16.9325 O.3     1  UNL1       -0.3601
     55 H          62.2696   89.9037   17.6629 H       1  UNL1        0.2129
@<TRIPOS>BOND
     1    33    34    1
     2    34    32    1
     3    28    32    1
     4    28    29    1
     5    29    30    1
     6    28    25    1
     7    25    26    1
     8    25    22    1
     9    22    23    1
    10    22    21    1
    11    21    20    1
    12    20    19    1
    13    19    18    1
    14    18    14    1
    15    14    15    1
    16    14    16    1
    17    14     1    1
    18     1     2    1
    19     3     2    1
    20     3    35    1
    21    35    36    1
    22    36    37    1
    23    35    38    1
    24    38    39    1
    25    39    40    1
    26    41    40    1
    27    41    49    1
    28    49    50    1
    29    41    42    1
    30    42    43    1
    31    42    45    1
    32    45    46    1
    33    45    47    1
    34     3     4    1
    35     4     5    1
    36     4     6    1
    37     6     7    1
    38     7     8    1
    39     8     9    1
    40     8    10    1
    41    10    51    1
    42    51    52    1
    43    52    53    1
    44    52    54    1
    45    10    11    1
    46    11    12    1
    47    11     1    1
    48    29    31    1
    49    26    27    1
    50    23    24    1
    51    16    17    1
    52    43    44    1
    53    47    48    1
    54     5    13    1
    55    54    55    1
