@<TRIPOS>MOLECULE
*****
 24 28 0 0 0
SMALL
GASTEIGER

@<TRIPOS>ATOM
      1 C          59.2601   87.5941    7.7903 C.3     1  UNL1        0.1533
      2 N          60.2251   87.3250    8.9068 N.ar    1  UNL1       -0.2531
      3 N          60.6133   85.9740    9.4301 N.ar    1  UNL1       -0.1682
      4 C          61.5993   86.1737   10.5427 C.ar    1  UNL1        0.1193
      5 C          61.8204   87.6482   10.7070 C.ar    1  UNL1        0.0384
      6 C          60.9711   88.3597    9.6959 C.ar    1  UNL1        0.0554
      7 C          60.9868   89.8579    9.6245 C.3     1  UNL1        0.0454
      8 C          61.8518   90.6446   10.5641 C.3     1  UNL1        0.0113
      9 C          62.7011   89.9331   11.5752 C.3     1  UNL1        0.0566
     10 C          62.6855   88.4348   11.6466 C.3     1  UNL1        0.1374
     11 O          63.5348   87.7233   12.6577 O.3     1  UNL1       -0.3799
     12 H          64.0279   88.3742   13.1812 H       1  UNL1        0.2108
     13 C          63.5662   90.7198   12.5148 C.3     1  UNL1        0.1121
     14 C          64.5921   91.7413   12.1225 C.ar    1  UNL1       -0.0002
     15 C          65.0380   92.2538   10.7851 C.ar    1  UNL1       -0.0024
     16 C          66.1088   93.3008   10.7022 C.ar    1  UNL1       -0.0003
     17 C          66.7339   93.8354   11.9566 C.ar    1  UNL1        0.0000
     18 C          66.2880   93.3229   13.2940 C.ar    1  UNL1        0.0012
     19 C          65.2172   92.2759   13.3769 C.ar    1  UNL1        0.0152
     20 C          64.5775   91.5848   14.5444 C.ar    1  UNL1        0.0804
     21 C          64.5685   91.4880   16.0414 C.ar    1  UNL1        0.1177
     22 N          63.5424   90.4665   16.4336 N.ar    1  UNL1       -0.2223
     23 C          62.9174   89.9319   15.1792 C.ar    1  UNL1        0.1788
     24 N          63.5571   90.6230   14.0116 N.ar    1  UNL1       -0.3069
@<TRIPOS>BOND
     1     1     2    1
     2     2     3   ar
     3     3     4   ar
     4     4     5   ar
     5     5     6   ar
     6     6     7    1
     7     7     8    1
     8     9     8    1
     9     9    13    1
    10    13    14    1
    11    14    15   ar
    12    15    16   ar
    13    16    17   ar
    14    17    18   ar
    15    18    19   ar
    16    19    20    1
    17    20    21   ar
    18    21    22   ar
    19    22    23   ar
    20    23    24   ar
    21     9    10    1
    22    10    11    1
    23     6     2   ar
    24    13    24    1
    25    10     5    1
    26    19    14   ar
    27    24    20   ar
    28    11    12    1
@<TRIPOS>MOLECULE
*****
 24 28 0 0 0
SMALL
GASTEIGER

@<TRIPOS>ATOM
      1 C          63.5342   81.0181   14.0366 C.3     1  UNL1        0.1533
      2 N          63.5861   81.7245   12.7144 N.ar    1  UNL1       -0.2531
      3 N          64.1329   81.1626   11.4356 N.ar    1  UNL1       -0.1682
      4 C          63.9850   82.2076   10.3697 C.ar    1  UNL1        0.1193
      5 C          63.3468   83.4152   10.9897 C.ar    1  UNL1        0.0384
      6 C          63.1003   83.1166   12.4388 C.ar    1  UNL1        0.0554
      7 C          62.4653   84.1509   13.3202 C.3     1  UNL1        0.0454
      8 C          62.0768   85.4839   12.7524 C.3     1  UNL1        0.0113
      9 C          62.3233   85.7825   11.3034 C.3     1  UNL1        0.0566
     10 C          62.9584   84.7481   10.4219 C.3     1  UNL1        0.1374
     11 O          63.2049   85.0467    8.9728 O.3     1  UNL1       -0.3799
     12 H          62.8978   85.9443    8.7708 H       1  UNL1        0.2108
     13 C          61.9349   87.1155   10.7356 C.3     1  UNL1        0.1121
     14 C          60.9899   87.3458    9.5936 C.ar    1  UNL1       -0.0002
     15 C          60.2043   86.3999    8.7346 C.ar    1  UNL1       -0.0024
     16 C          59.3229   86.9330    7.6442 C.ar    1  UNL1       -0.0003
     17 C          59.2272   88.4120    7.4129 C.ar    1  UNL1        0.0000
     18 C          60.0128   89.3578    8.2720 C.ar    1  UNL1        0.0012
     19 C          60.8942   88.8248    9.3623 C.ar    1  UNL1        0.0152
     20 C          61.7799   89.5084   10.3613 C.ar    1  UNL1        0.0804
     21 C          62.2682   90.8451   10.8358 C.ar    1  UNL1        0.1177
     22 N          63.2132   90.6147   11.9777 N.ar    1  UNL1       -0.2223
     23 C          63.3089   89.1357   12.2090 C.ar    1  UNL1        0.1788
     24 N          62.4231   88.4520   11.2101 N.ar    1  UNL1       -0.3069
@<TRIPOS>BOND
     1     1     2    1
     2     2     3   ar
     3     3     4   ar
     4     4     5   ar
     5     5     6   ar
     6     6     7    1
     7     7     8    1
     8     9     8    1
     9     9    13    1
    10    13    14    1
    11    14    15   ar
    12    15    16   ar
    13    16    17   ar
    14    17    18   ar
    15    18    19   ar
    16    19    20    1
    17    20    21   ar
    18    21    22   ar
    19    22    23   ar
    20    23    24   ar
    21     9    10    1
    22    10    11    1
    23     6     2   ar
    24    13    24    1
    25    10     5    1
    26    19    14   ar
    27    24    20   ar
    28    11    12    1
@<TRIPOS>MOLECULE
*****
 24 28 0 0 0
SMALL
GASTEIGER

@<TRIPOS>ATOM
      1 C          63.3106   80.7325   14.0678 C.3     1  UNL1        0.1533
      2 N          63.3867   81.4762   12.7674 N.ar    1  UNL1       -0.2531
      3 N          63.8802   80.9235   11.4633 N.ar    1  UNL1       -0.1682
      4 C          63.7812   82.0089   10.4327 C.ar    1  UNL1        0.1193
      5 C          63.2265   83.2324   11.1000 C.ar    1  UNL1        0.0384
      6 C          62.9827   82.9032   12.5430 C.ar    1  UNL1        0.0554
      7 C          62.4243   83.9454   13.4660 C.3     1  UNL1        0.0454
      8 C          62.1097   85.3168   12.9461 C.3     1  UNL1        0.0113
      9 C          62.3535   85.6461   11.5032 C.3     1  UNL1        0.0566
     10 C          62.9120   84.6038   10.5801 C.3     1  UNL1        0.1374
     11 O          63.1558   84.9331    9.1372 O.3     1  UNL1       -0.3799
     12 H          62.9011   85.8536    8.9680 H       1  UNL1        0.2108
     13 C          62.0389   87.0175   10.9833 C.3     1  UNL1        0.1121
     14 C          62.5901   88.3086   11.5118 C.ar    1  UNL1       -0.0002
     15 C          63.5453   88.6098   12.6284 C.ar    1  UNL1       -0.0024
     16 C          63.9203   90.0301   12.9319 C.ar    1  UNL1       -0.0003
     17 C          63.3400   91.1491   12.1188 C.ar    1  UNL1        0.0000
     18 C          62.3848   90.8479   11.0023 C.ar    1  UNL1        0.0012
     19 C          62.0098   89.4276   10.6988 C.ar    1  UNL1        0.0152
     20 C          61.1000   88.8281    9.6678 C.ar    1  UNL1        0.0804
     21 C          60.1791   89.1492    8.5281 C.ar    1  UNL1        0.1177
     22 N          59.6280   87.8580    7.9996 N.ar    1  UNL1       -0.2223
     23 C          60.2083   86.7390    8.8127 C.ar    1  UNL1        0.1788
     24 N          61.1180   87.3385    9.8437 N.ar    1  UNL1       -0.3069
@<TRIPOS>BOND
     1     1     2    1
     2     2     3   ar
     3     3     4   ar
     4     4     5   ar
     5     5     6   ar
     6     6     7    1
     7     7     8    1
     8     9     8    1
     9     9    13    1
    10    13    14    1
    11    14    15   ar
    12    15    16   ar
    13    16    17   ar
    14    17    18   ar
    15    18    19   ar
    16    19    20    1
    17    20    21   ar
    18    21    22   ar
    19    22    23   ar
    20    23    24   ar
    21     9    10    1
    22    10    11    1
    23     6     2   ar
    24    13    24    1
    25    10     5    1
    26    19    14   ar
    27    24    20   ar
    28    11    12    1
@<TRIPOS>MOLECULE
*****
 24 28 0 0 0
SMALL
GASTEIGER

@<TRIPOS>ATOM
      1 C          62.9195   79.4586   11.6265 C.3     1  UNL1        0.1533
      2 N          62.6880   80.6018   12.5697 N.ar    1  UNL1       -0.2531
      3 N          62.3277   80.4880   14.0213 N.ar    1  UNL1       -0.1682
      4 C          62.1931   81.8754   14.5756 C.ar    1  UNL1        0.1193
      5 C          62.4703   82.8465   13.4665 C.ar    1  UNL1        0.0384
      6 C          62.7761   82.0594   12.2268 C.ar    1  UNL1        0.0554
      7 C          63.0953   82.7717   10.9459 C.3     1  UNL1        0.0454
      8 C          63.1086   84.2710   10.9047 C.3     1  UNL1        0.0113
      9 C          62.8028   85.0582   12.1443 C.3     1  UNL1        0.0566
     10 C          62.4836   84.3459   13.4253 C.3     1  UNL1        0.1374
     11 O          62.1778   85.1330   14.6650 O.3     1  UNL1       -0.3799
     12 H          62.2289   86.0811   14.4669 H       1  UNL1        0.2108
     13 C          62.8162   86.5576   12.1031 C.3     1  UNL1        0.1121
     14 C          62.1368   87.4175   11.0789 C.ar    1  UNL1       -0.0002
     15 C          61.3030   87.0799    9.8786 C.ar    1  UNL1       -0.0024
     16 C          60.7445   88.1765    9.0210 C.ar    1  UNL1       -0.0003
     17 C          61.0198   89.6106    9.3637 C.ar    1  UNL1        0.0000
     18 C          61.8535   89.9482   10.5640 C.ar    1  UNL1        0.0012
     19 C          62.4120   88.8516   11.4217 C.ar    1  UNL1        0.0152
     20 C          63.2615   88.8780   12.6576 C.ar    1  UNL1        0.0804
     21 C          63.9567   89.7808   13.6334 C.ar    1  UNL1        0.1177
     22 N          64.6361   88.9207   14.6575 N.ar    1  UNL1       -0.2223
     23 C          64.3609   87.4866   14.3148 C.ar    1  UNL1        0.1788
     24 N          63.5113   87.4602   13.0788 N.ar    1  UNL1       -0.3069
@<TRIPOS>BOND
     1     1     2    1
     2     2     3   ar
     3     3     4   ar
     4     4     5   ar
     5     5     6   ar
     6     6     7    1
     7     7     8    1
     8     9     8    1
     9     9    13    1
    10    13    14    1
    11    14    15   ar
    12    15    16   ar
    13    16    17   ar
    14    17    18   ar
    15    18    19   ar
    16    19    20    1
    17    20    21   ar
    18    21    22   ar
    19    22    23   ar
    20    23    24   ar
    21     9    10    1
    22    10    11    1
    23     6     2   ar
    24    13    24    1
    25    10     5    1
    26    19    14   ar
    27    24    20   ar
    28    11    12    1
@<TRIPOS>MOLECULE
*****
 24 28 0 0 0
SMALL
GASTEIGER

@<TRIPOS>ATOM
      1 C          61.6265   84.4690    5.5214 C.3     1  UNL1        0.1533
      2 N          61.1416   85.1547    6.7643 N.ar    1  UNL1       -0.2531
      3 N          59.8967   85.9826    6.8859 N.ar    1  UNL1       -0.1682
      4 C          59.8022   86.4724    8.3006 C.ar    1  UNL1        0.1193
      5 C          60.9886   85.9471    9.0532 C.ar    1  UNL1        0.0384
      6 C          61.8164   85.1327    8.1037 C.ar    1  UNL1        0.0554
      7 C          63.0777   84.4764    8.5815 C.3     1  UNL1        0.0454
      8 C          63.5112   84.6344   10.0088 C.3     1  UNL1        0.0113
      9 C          62.6835   85.4488   10.9583 C.3     1  UNL1        0.0566
     10 C          61.4221   86.1051   10.4805 C.3     1  UNL1        0.1374
     11 O          60.5943   86.9195   11.4299 O.3     1  UNL1       -0.3799
     12 H          61.0125   86.9197   12.3052 H       1  UNL1        0.2108
     13 C          63.1170   85.6068   12.3855 C.3     1  UNL1        0.1121
     14 C          63.4545   86.9001   13.0664 C.ar    1  UNL1       -0.0002
     15 C          63.4642   88.3185   12.5785 C.ar    1  UNL1       -0.0024
     16 C          63.8548   89.4287   13.5085 C.ar    1  UNL1       -0.0003
     17 C          64.2355   89.1206   14.9263 C.ar    1  UNL1        0.0000
     18 C          64.2257   87.7022   15.4141 C.ar    1  UNL1        0.0012
     19 C          63.8352   86.5920   14.4842 C.ar    1  UNL1        0.0152
     20 C          63.7331   85.1083   14.6795 C.ar    1  UNL1        0.0804
     21 C          63.9053   84.0008   15.6765 C.ar    1  UNL1        0.1177
     22 N          63.5678   82.7075   14.9956 N.ar    1  UNL1       -0.2223
     23 C          63.1871   83.0157   13.5778 C.ar    1  UNL1        0.1788
     24 N          63.2892   84.4994   13.3825 N.ar    1  UNL1       -0.3069
@<TRIPOS>BOND
     1     1     2    1
     2     2     3   ar
     3     3     4   ar
     4     4     5   ar
     5     5     6   ar
     6     6     7    1
     7     7     8    1
     8     9     8    1
     9     9    13    1
    10    13    14    1
    11    14    15   ar
    12    15    16   ar
    13    16    17   ar
    14    17    18   ar
    15    18    19   ar
    16    19    20    1
    17    20    21   ar
    18    21    22   ar
    19    22    23   ar
    20    23    24   ar
    21     9    10    1
    22    10    11    1
    23     6     2   ar
    24    13    24    1
    25    10     5    1
    26    19    14   ar
    27    24    20   ar
    28    11    12    1
@<TRIPOS>MOLECULE
*****
 24 28 0 0 0
SMALL
GASTEIGER

@<TRIPOS>ATOM
      1 C          59.5990   87.5839    7.8332 C.3     1  UNL1        0.1533
      2 N          60.5075   87.3665    9.0068 N.ar    1  UNL1       -0.2531
      3 N          60.7971   86.0504    9.6657 N.ar    1  UNL1       -0.1682
      4 C          61.7544   86.2975   10.7937 C.ar    1  UNL1        0.1193
      5 C          62.0565   87.7663   10.8319 C.ar    1  UNL1        0.0384
      6 C          61.2859   88.4269    9.7276 C.ar    1  UNL1        0.0554
      7 C          61.3925   89.9088    9.5210 C.3     1  UNL1        0.0454
      8 C          62.2697   90.7300   10.4188 C.3     1  UNL1        0.0113
      9 C          63.0404   90.0695   11.5231 C.3     1  UNL1        0.0566
     10 C          62.9338   88.5875   11.7297 C.3     1  UNL1        0.1374
     11 O          63.7044   87.9269   12.8341 O.3     1  UNL1       -0.3799
     12 H          64.2169   88.5952   13.3154 H       1  UNL1        0.2108
     13 C          63.9176   90.8907   12.4209 C.3     1  UNL1        0.1121
     14 C          63.8936   90.8870   13.9207 C.ar    1  UNL1       -0.0002
     15 C          63.0589   90.1283   14.9093 C.ar    1  UNL1       -0.0024
     16 C          63.2645   90.3364   16.3805 C.ar    1  UNL1       -0.0003
     17 C          64.3049   91.3031   16.8631 C.ar    1  UNL1        0.0000
     18 C          65.1397   92.0619   15.8745 C.ar    1  UNL1        0.0012
     19 C          64.9341   91.8538   14.4033 C.ar    1  UNL1        0.0152
     20 C          65.6011   92.4549   13.2017 C.ar    1  UNL1        0.0804
     21 C          66.6564   93.4240   12.7573 C.ar    1  UNL1        0.1177
     22 N          66.6803   93.4276   11.2575 N.ar    1  UNL1       -0.2223
     23 C          65.6399   92.4608   10.7749 C.ar    1  UNL1        0.1788
     24 N          64.9729   91.8597   11.9765 N.ar    1  UNL1       -0.3069
@<TRIPOS>BOND
     1     1     2    1
     2     2     3   ar
     3     3     4   ar
     4     4     5   ar
     5     5     6   ar
     6     6     7    1
     7     7     8    1
     8     9     8    1
     9     9    13    1
    10    13    14    1
    11    14    15   ar
    12    15    16   ar
    13    16    17   ar
    14    17    18   ar
    15    18    19   ar
    16    19    20    1
    17    20    21   ar
    18    21    22   ar
    19    22    23   ar
    20    23    24   ar
    21     9    10    1
    22    10    11    1
    23     6     2   ar
    24    13    24    1
    25    10     5    1
    26    19    14   ar
    27    24    20   ar
    28    11    12    1
@<TRIPOS>MOLECULE
*****
 24 28 0 0 0
SMALL
GASTEIGER

@<TRIPOS>ATOM
      1 C          63.5420   80.7404   13.5440 C.3     1  UNL1        0.1533
      2 N          63.6958   82.2088   13.8087 N.ar    1  UNL1       -0.2531
      3 N          64.3726   82.8242   14.9975 N.ar    1  UNL1       -0.1682
      4 C          64.2948   84.3154   14.8546 C.ar    1  UNL1        0.1193
      5 C          63.5700   84.6215   13.5775 C.ar    1  UNL1        0.0384
      6 C          63.1997   83.3196   12.9312 C.ar    1  UNL1        0.0554
      7 C          62.4588   83.3137   11.6270 C.3     1  UNL1        0.0454
      8 C          62.0880   84.6098   10.9692 C.3     1  UNL1        0.0113
      9 C          62.4582   85.9118   11.6155 C.3     1  UNL1        0.0566
     10 C          63.1992   85.9176   12.9197 C.3     1  UNL1        0.1374
     11 O          63.5695   87.2196   13.5661 O.3     1  UNL1       -0.3799
     12 H          63.2580   87.9544   13.0148 H       1  UNL1        0.2108
     13 C          62.0875   87.2079   10.9577 C.3     1  UNL1        0.1121
     14 C          61.1437   87.3725    9.8035 C.ar    1  UNL1       -0.0002
     15 C          60.3432   86.3810    9.0123 C.ar    1  UNL1       -0.0024
     16 C          59.4673   86.8502    7.8887 C.ar    1  UNL1       -0.0003
     17 C          59.3920   88.3110    7.5562 C.ar    1  UNL1        0.0000
     18 C          60.1925   89.3025    8.3474 C.ar    1  UNL1        0.0012
     19 C          61.0683   88.8332    9.4711 C.ar    1  UNL1        0.0152
     20 C          61.9656   89.5714   10.4198 C.ar    1  UNL1        0.0804
     21 C          62.4735   90.9304   10.8007 C.ar    1  UNL1        0.1177
     22 N          63.4174   90.7658   11.9549 N.ar    1  UNL1       -0.2223
     23 C          63.4927   89.3050   12.2873 C.ar    1  UNL1        0.1788
     24 N          62.5955   88.5668   11.3386 N.ar    1  UNL1       -0.3069
@<TRIPOS>BOND
     1     1     2    1
     2     2     3   ar
     3     3     4   ar
     4     4     5   ar
     5     5     6   ar
     6     6     7    1
     7     7     8    1
     8     9     8    1
     9     9    13    1
    10    13    14    1
    11    14    15   ar
    12    15    16   ar
    13    16    17   ar
    14    17    18   ar
    15    18    19   ar
    16    19    20    1
    17    20    21   ar
    18    21    22   ar
    19    22    23   ar
    20    23    24   ar
    21     9    10    1
    22    10    11    1
    23     6     2   ar
    24    13    24    1
    25    10     5    1
    26    19    14   ar
    27    24    20   ar
    28    11    12    1
@<TRIPOS>MOLECULE
*****
 24 28 0 0 0
SMALL
GASTEIGER

@<TRIPOS>ATOM
      1 C          63.0351   79.4905   11.6073 C.3     1  UNL1        0.1533
      2 N          62.7525   80.6556   12.5087 N.ar    1  UNL1       -0.2531
      3 N          62.3827   80.5778   13.9603 N.ar    1  UNL1       -0.1682
      4 C          62.1916   81.9771   14.4656 C.ar    1  UNL1        0.1193
      5 C          62.4434   82.9197   13.3262 C.ar    1  UNL1        0.0384
      6 C          62.7900   82.1029   12.1168 C.ar    1  UNL1        0.0554
      7 C          63.0950   82.7827   10.8150 C.3     1  UNL1        0.0454
      8 C          63.0533   84.2793   10.7225 C.3     1  UNL1        0.0113
      9 C          62.7067   85.0961   11.9319 C.3     1  UNL1        0.0566
     10 C          62.4017   84.4163   13.2338 C.3     1  UNL1        0.1374
     11 O          62.0551   85.2331   14.4432 O.3     1  UNL1       -0.3799
     12 H          62.0731   86.1752   14.2131 H       1  UNL1        0.2108
     13 C          62.6651   86.5927   11.8394 C.3     1  UNL1        0.1121
     14 C          63.3412   87.5528   12.7727 C.ar    1  UNL1       -0.0002
     15 C          64.1968   87.3389   13.9860 C.ar    1  UNL1       -0.0024
     16 C          64.7453   88.5176   14.7342 C.ar    1  UNL1       -0.0003
     17 C          64.4381   89.9102   14.2690 C.ar    1  UNL1        0.0000
     18 C          63.5825   90.1241   13.0558 C.ar    1  UNL1        0.0012
     19 C          63.0340   88.9454   12.3076 C.ar    1  UNL1        0.0152
     20 C          62.1681   88.8459   11.0868 C.ar    1  UNL1        0.0804
     21 C          61.4431   89.6452   10.0449 C.ar    1  UNL1        0.1177
     22 N          60.7670   88.6850    9.1116 N.ar    1  UNL1       -0.2223
     23 C          61.0742   87.2924    9.5767 C.ar    1  UNL1        0.1788
     24 N          61.9401   87.3919   10.7975 N.ar    1  UNL1       -0.3069
@<TRIPOS>BOND
     1     1     2    1
     2     2     3   ar
     3     3     4   ar
     4     4     5   ar
     5     5     6   ar
     6     6     7    1
     7     7     8    1
     8     9     8    1
     9     9    13    1
    10    13    14    1
    11    14    15   ar
    12    15    16   ar
    13    16    17   ar
    14    17    18   ar
    15    18    19   ar
    16    19    20    1
    17    20    21   ar
    18    21    22   ar
    19    22    23   ar
    20    23    24   ar
    21     9    10    1
    22    10    11    1
    23     6     2   ar
    24    13    24    1
    25    10     5    1
    26    19    14   ar
    27    24    20   ar
    28    11    12    1
@<TRIPOS>MOLECULE
*****
 24 28 0 0 0
SMALL
GASTEIGER

@<TRIPOS>ATOM
      1 C          60.1441   85.6331    7.8157 C.3     1  UNL1        0.1533
      2 N          60.2168   87.0757    8.2203 N.ar    1  UNL1       -0.2531
      3 N          59.4272   88.2007    7.6196 N.ar    1  UNL1       -0.1682
      4 C          59.8142   89.4668    8.3248 C.ar    1  UNL1        0.1193
      5 C          60.8430   89.1242    9.3612 C.ar    1  UNL1        0.0384
      6 C          61.0918   87.6464    9.2966 C.ar    1  UNL1        0.0554
      7 C          62.0830   87.0114   10.2263 C.3     1  UNL1        0.0454
      8 C          62.8254   87.8543   11.2205 C.3     1  UNL1        0.0113
      9 C          62.5767   89.3320   11.2851 C.3     1  UNL1        0.0566
     10 C          61.5854   89.9670   10.3554 C.3     1  UNL1        0.1374
     11 O          61.3366   91.4448   10.4200 O.3     1  UNL1       -0.3799
     12 H          61.8932   91.8366   11.1111 H       1  UNL1        0.2108
     13 C          63.3191   90.1749   12.2794 C.3     1  UNL1        0.1121
     14 C          64.2682   91.2902   11.9552 C.ar    1  UNL1       -0.0002
     15 C          64.7339   91.8645   10.6501 C.ar    1  UNL1       -0.0024
     16 C          65.7097   93.0035   10.6376 C.ar    1  UNL1       -0.0003
     17 C          66.2199   93.5683   11.9301 C.ar    1  UNL1        0.0000
     18 C          65.7543   92.9941   13.2352 C.ar    1  UNL1        0.0012
     19 C          64.7784   91.8550   13.2478 C.ar    1  UNL1        0.0152
     20 C          64.1446   91.0887   14.3707 C.ar    1  UNL1        0.0804
     21 C          64.0681   90.9642   15.8637 C.ar    1  UNL1        0.1177
     22 N          63.1189   89.8488   16.1877 N.ar    1  UNL1       -0.2223
     23 C          62.6087   89.2840   14.8952 C.ar    1  UNL1        0.1788
     24 N          63.2426   90.0503   13.7722 N.ar    1  UNL1       -0.3069
@<TRIPOS>BOND
     1     1     2    1
     2     2     3   ar
     3     3     4   ar
     4     4     5   ar
     5     5     6   ar
     6     6     7    1
     7     7     8    1
     8     9     8    1
     9     9    13    1
    10    13    14    1
    11    14    15   ar
    12    15    16   ar
    13    16    17   ar
    14    17    18   ar
    15    18    19   ar
    16    19    20    1
    17    20    21   ar
    18    21    22   ar
    19    22    23   ar
    20    23    24   ar
    21     9    10    1
    22    10    11    1
    23     6     2   ar
    24    13    24    1
    25    10     5    1
    26    19    14   ar
    27    24    20   ar
    28    11    12    1
