@<TRIPOS>MOLECULE
*****
 27 30 0 0 0
SMALL
GASTEIGER

@<TRIPOS>ATOM
      1 C          59.3424   88.4552    7.4369 C.3     1  UNL1        0.0523
      2 C          60.0966   87.9961    8.6495 C.ar    1  UNL1        0.0653
      3 C          60.3451   88.9470    9.7827 C.ar    1  UNL1        0.0490
      4 C          61.0993   88.4880   10.9953 C.ar    1  UNL1        0.1342
      5 N          61.6051   87.0780   11.0747 N.ar    1  UNL1       -0.1816
      6 N          62.3737   86.3456   12.1343 N.ar    1  UNL1       -0.1409
      7 C          62.6003   84.9421   11.6559 C.ar    1  UNL1        0.2227
      8 N          61.9717   84.8071   10.3007 N.ar    1  UNL1       -0.1880
      9 C          61.3566   86.1272    9.9415 C.ar    1  UNL1        0.2552
     10 N          60.6024   86.5862    8.7289 N.ar    1  UNL1       -0.2142
     11 C          63.3278   83.8630   12.4019 C.3     1  UNL1        0.3163
     12 C          64.0552   82.7839   13.1478 C.3     1  UNL1        0.0805
     13 F          64.1379   84.9034   13.1169 F       1  UNL1       -0.1962
     14 F          62.5177   82.8226   11.6869 F       1  UNL1       -0.1962
     15 N          61.3478   89.4388   12.1285 N.pl3   1  UNL1       -0.3192
     16 H          60.6966   89.5094   12.8635 H       1  UNL1        0.1482
     17 C          62.5884   90.2819   12.1418 C.3     1  UNL1        0.0750
     18 C          63.0488   90.9586   10.8848 C.3     1  UNL1        0.0245
     19 C          64.2893   91.8017   10.8982 C.3     1  UNL1        0.0277
     20 C          65.0694   91.9681   12.1686 C.ar    1  UNL1       -0.0260
     21 C          66.3100   92.8113   12.1819 C.ar    1  UNL1       -0.0041
     22 C          67.0900   92.9778   13.4522 C.ar    1  UNL1        0.0064
     23 C          66.6295   92.3011   14.7093 C.ar    1  UNL1        0.0342
     24 BR         67.4096   92.4675   15.9796 Br      1  UNL1       -0.0490
     25 C          65.3890   91.4580   14.6959 C.ar    1  UNL1        0.0022
     26 C          64.6089   91.2915   13.4255 C.ar    1  UNL1       -0.0240
     27 C          63.3684   90.4484   13.4122 C.3     1  UNL1        0.0455
@<TRIPOS>BOND
     1     1     2    1
     2     2     3   ar
     3     3     4   ar
     4     4    15    1
     5    15    17    1
     6    17    18    1
     7    18    19    1
     8    19    20    1
     9    20    21   ar
    10    21    22   ar
    11    22    23   ar
    12    23    24    1
    13    23    25   ar
    14    25    26   ar
    15    26    27    1
    16     4     5   ar
    17     5     6   ar
    18     6     7   ar
    19     7    11    1
    20    11    12    1
    21    11    13    1
    22    11    14    1
    23     7     8   ar
    24     8     9   ar
    25     9    10   ar
    26    10     2   ar
    27    27    17    1
    28     9     5   ar
    29    26    20   ar
    30    15    16    1
@<TRIPOS>MOLECULE
*****
 27 30 0 0 0
SMALL
GASTEIGER

@<TRIPOS>ATOM
      1 C          59.3725   88.8406    7.3883 C.3     1  UNL1        0.0523
      2 C          60.1084   88.2797    8.5689 C.ar    1  UNL1        0.0653
      3 C          60.2599   89.0987    9.8165 C.ar    1  UNL1        0.0490
      4 C          60.9958   88.5378   10.9971 C.ar    1  UNL1        0.1342
      5 N          61.5802   87.1579   10.9301 N.ar    1  UNL1       -0.1816
      6 N          62.3520   86.3454   11.9272 N.ar    1  UNL1       -0.1409
      7 C          62.6775   85.0242   11.2958 C.ar    1  UNL1        0.2227
      8 N          62.1068   85.0203    9.9086 N.ar    1  UNL1       -0.1880
      9 C          61.4287   86.3390    9.6826 C.ar    1  UNL1        0.2552
     10 N          60.6928   86.8999    8.5020 N.ar    1  UNL1       -0.2142
     11 C          63.4398   83.9037   11.9388 C.3     1  UNL1        0.3163
     12 C          64.2021   82.7832   12.5818 C.3     1  UNL1        0.0805
     13 F          62.7604   84.1910   13.2449 F       1  UNL1       -0.1962
     14 F          64.1191   83.6164   10.6327 F       1  UNL1       -0.1962
     15 N          61.1474   89.3568   12.2446 N.pl3   1  UNL1       -0.3192
     16 H          60.3968   89.4339   12.8770 H       1  UNL1        0.1482
     17 C          62.4426   90.0582   12.5287 C.3     1  UNL1        0.0750
     18 C          63.0941   89.9149   13.8721 C.3     1  UNL1        0.0245
     19 C          64.3892   90.6163   14.1561 C.3     1  UNL1        0.0277
     20 C          65.0328   91.4609   13.0967 C.ar    1  UNL1       -0.0260
     21 C          66.3280   92.1623   13.3807 C.ar    1  UNL1       -0.0041
     22 C          66.9716   93.0069   12.3213 C.ar    1  UNL1        0.0064
     23 C          66.3200   93.1501   10.9777 C.ar    1  UNL1        0.0342
     24 BR         66.9636   93.9947    9.9183 Br      1  UNL1       -0.0490
     25 C          65.0249   92.4487   10.6937 C.ar    1  UNL1        0.0022
     26 C          64.3813   91.6041   11.7532 C.ar    1  UNL1       -0.0240
     27 C          63.0862   90.9027   11.4692 C.3     1  UNL1        0.0455
@<TRIPOS>BOND
     1     1     2    1
     2     2     3   ar
     3     3     4   ar
     4     4    15    1
     5    15    17    1
     6    17    18    1
     7    18    19    1
     8    19    20    1
     9    20    21   ar
    10    21    22   ar
    11    22    23   ar
    12    23    24    1
    13    23    25   ar
    14    25    26   ar
    15    26    27    1
    16     4     5   ar
    17     5     6   ar
    18     6     7   ar
    19     7    11    1
    20    11    12    1
    21    11    13    1
    22    11    14    1
    23     7     8   ar
    24     8     9   ar
    25     9    10   ar
    26    10     2   ar
    27    27    17    1
    28     9     5   ar
    29    26    20   ar
    30    15    16    1
@<TRIPOS>MOLECULE
*****
 27 30 0 0 0
SMALL
GASTEIGER

@<TRIPOS>ATOM
      1 C          62.2348   79.4716   13.0594 C.3     1  UNL1        0.0523
      2 C          62.5526   80.9236   13.2610 C.ar    1  UNL1        0.0653
      3 C          63.1081   81.7341   12.1276 C.ar    1  UNL1        0.0490
      4 C          63.4260   83.1861   12.3292 C.ar    1  UNL1        0.1342
      5 N          63.1884   83.8276   13.6643 N.ar    1  UNL1       -0.1816
      6 N          63.4042   85.2275   14.1577 N.ar    1  UNL1       -0.1409
      7 C          62.9821   85.2822   15.5961 C.ar    1  UNL1        0.2227
      8 N          62.5055   83.9160   15.9915 N.ar    1  UNL1       -0.1880
      9 C          62.6330   83.0170   14.7976 C.ar    1  UNL1        0.2552
     10 N          62.3151   81.5650   14.5960 N.ar    1  UNL1       -0.2142
     11 C          63.0285   86.4909   16.4832 C.3     1  UNL1        0.3163
     12 C          63.0749   87.6995   17.3703 C.3     1  UNL1        0.0805
     13 F          61.9502   85.9012   17.3432 F       1  UNL1       -0.1962
     14 F          64.1067   87.0806   15.6233 F       1  UNL1       -0.1962
     15 N          63.9814   83.9967   11.1959 N.pl3   1  UNL1       -0.3192
     16 H          64.9184   83.8776   10.9184 H       1  UNL1        0.1482
     17 C          63.1091   84.9888   10.4853 C.3     1  UNL1        0.0750
     18 C          62.8343   84.8311    9.0192 C.3     1  UNL1        0.0245
     19 C          61.9621   85.8233    8.3087 C.3     1  UNL1        0.0277
     20 C          61.3646   86.9731    9.0643 C.ar    1  UNL1       -0.0260
     21 C          60.4923   87.9652    8.3538 C.ar    1  UNL1       -0.0041
     22 C          59.8949   89.1150    9.1094 C.ar    1  UNL1        0.0064
     23 C          60.1697   89.2727   10.5756 C.ar    1  UNL1        0.0342
     24 BR         59.5722   90.4225   11.3312 Br      1  UNL1       -0.0490
     25 C          61.0419   88.2806   11.2861 C.ar    1  UNL1        0.0022
     26 C          61.6394   87.1308   10.5305 C.ar    1  UNL1       -0.0240
     27 C          62.5116   86.1387   11.2410 C.3     1  UNL1        0.0455
@<TRIPOS>BOND
     1     1     2    1
     2     2     3   ar
     3     3     4   ar
     4     4    15    1
     5    15    17    1
     6    17    18    1
     7    18    19    1
     8    19    20    1
     9    20    21   ar
    10    21    22   ar
    11    22    23   ar
    12    23    24    1
    13    23    25   ar
    14    25    26   ar
    15    26    27    1
    16     4     5   ar
    17     5     6   ar
    18     6     7   ar
    19     7    11    1
    20    11    12    1
    21    11    13    1
    22    11    14    1
    23     7     8   ar
    24     8     9   ar
    25     9    10   ar
    26    10     2   ar
    27    27    17    1
    28     9     5   ar
    29    26    20   ar
    30    15    16    1
@<TRIPOS>MOLECULE
*****
 27 30 0 0 0
SMALL
GASTEIGER

@<TRIPOS>ATOM
      1 C          62.4679   79.9760   13.0607 C.3     1  UNL1        0.0523
      2 C          62.6819   81.4607   13.0626 C.ar    1  UNL1        0.0653
      3 C          63.3918   82.1147   14.2108 C.ar    1  UNL1        0.0490
      4 C          63.6058   83.5994   14.2127 C.ar    1  UNL1        0.1342
      5 N          63.1099   84.4300   13.0662 N.ar    1  UNL1       -0.1816
      6 N          63.1745   85.9034   12.7927 N.ar    1  UNL1       -0.1409
      7 C          62.5045   86.1600   11.4754 C.ar    1  UNL1        0.2227
      8 N          62.0259   84.8452   10.9349 N.ar    1  UNL1       -0.1880
      9 C          62.4000   83.7760   11.9181 C.ar    1  UNL1        0.2552
     10 N          62.1860   82.2914   11.9162 N.ar    1  UNL1       -0.2142
     11 C          62.3418   87.4968   10.8146 C.3     1  UNL1        0.3163
     12 C          62.1791   88.8336   10.1539 C.3     1  UNL1        0.0805
     13 F          61.5300   86.8599    9.7259 F       1  UNL1       -0.1962
     14 F          63.1536   88.1337   11.9033 F       1  UNL1       -0.1962
     15 N          64.3157   84.2534   15.3608 N.pl3   1  UNL1       -0.3192
     16 H          64.9760   83.7451   15.8851 H       1  UNL1        0.1482
     17 C          64.0195   85.6818   15.7101 C.3     1  UNL1        0.0750
     18 C          63.1326   86.0001   16.8772 C.3     1  UNL1        0.0245
     19 C          62.8365   87.4285   17.2265 C.3     1  UNL1        0.0277
     20 C          63.4272   88.5385   16.4087 C.ar    1  UNL1       -0.0260
     21 C          63.1311   89.9669   16.7580 C.ar    1  UNL1       -0.0041
     22 C          63.7218   91.0770   15.9402 C.ar    1  UNL1        0.0064
     23 C          64.6087   90.7586   14.7731 C.ar    1  UNL1        0.0342
     24 BR         65.1995   91.8687   13.9553 Br      1  UNL1       -0.0490
     25 C          64.9049   89.3303   14.4238 C.ar    1  UNL1        0.0022
     26 C          64.3141   88.2202   15.2416 C.ar    1  UNL1       -0.0240
     27 C          64.6102   86.7919   14.8923 C.3     1  UNL1        0.0455
@<TRIPOS>BOND
     1     1     2    1
     2     2     3   ar
     3     3     4   ar
     4     4    15    1
     5    15    17    1
     6    17    18    1
     7    18    19    1
     8    19    20    1
     9    20    21   ar
    10    21    22   ar
    11    22    23   ar
    12    23    24    1
    13    23    25   ar
    14    25    26   ar
    15    26    27    1
    16     4     5   ar
    17     5     6   ar
    18     6     7   ar
    19     7    11    1
    20    11    12    1
    21    11    13    1
    22    11    14    1
    23     7     8   ar
    24     8     9   ar
    25     9    10   ar
    26    10     2   ar
    27    27    17    1
    28     9     5   ar
    29    26    20   ar
    30    15    16    1
@<TRIPOS>MOLECULE
*****
 27 30 0 0 0
SMALL
GASTEIGER

@<TRIPOS>ATOM
      1 C          63.6163   90.5062   16.3799 C.3     1  UNL1        0.0523
      2 C          63.9154   90.8690   14.9554 C.ar    1  UNL1        0.0653
      3 C          63.1085   90.2674   13.8431 C.ar    1  UNL1        0.0490
      4 C          63.4076   90.6302   12.4186 C.ar    1  UNL1        0.1342
      5 N          64.5134   91.5945   12.1066 N.ar    1  UNL1       -0.1816
      6 N          65.0355   92.1372   10.8093 N.ar    1  UNL1       -0.1409
      7 C          66.1649   93.0742   11.1199 C.ar    1  UNL1        0.2227
      8 N          66.3408   93.1105   12.6091 N.ar    1  UNL1       -0.1880
      9 C          65.3202   92.1960   13.2189 C.ar    1  UNL1        0.2552
     10 N          65.0211   91.8332   14.6433 N.ar    1  UNL1       -0.2142
     11 C          66.9760   93.8403   10.1173 C.3     1  UNL1        0.3163
     12 C          67.7870   94.6064    9.1147 C.3     1  UNL1        0.0805
     13 F          66.5107   95.1298   10.7262 F       1  UNL1       -0.1962
     14 F          67.4413   92.5509    9.5084 F       1  UNL1       -0.1962
     15 N          62.6008   90.0286   11.3063 N.pl3   1  UNL1       -0.3192
     16 H          62.0997   90.6112   10.6909 H       1  UNL1        0.1482
     17 C          62.5576   88.5394   11.1316 C.3     1  UNL1        0.0750
     18 C          62.0849   87.9497    9.8359 C.3     1  UNL1        0.0245
     19 C          62.0417   86.4606    9.6612 C.3     1  UNL1        0.0277
     20 C          62.4712   85.5612   10.7822 C.ar    1  UNL1       -0.0260
     21 C          62.4280   84.0720   10.6074 C.ar    1  UNL1       -0.0041
     22 C          62.8575   83.1725   11.7284 C.ar    1  UNL1        0.0064
     23 C          63.3302   83.7623   13.0241 C.ar    1  UNL1        0.0342
     24 BR         63.7597   82.8628   14.1450 Br      1  UNL1       -0.0490
     25 C          63.3734   85.2514   13.1988 C.ar    1  UNL1        0.0022
     26 C          62.9439   86.1509   12.0778 C.ar    1  UNL1       -0.0240
     27 C          62.9871   87.6400   12.2525 C.3     1  UNL1        0.0455
@<TRIPOS>BOND
     1     1     2    1
     2     2     3   ar
     3     3     4   ar
     4     4    15    1
     5    15    17    1
     6    17    18    1
     7    18    19    1
     8    19    20    1
     9    20    21   ar
    10    21    22   ar
    11    22    23   ar
    12    23    24    1
    13    23    25   ar
    14    25    26   ar
    15    26    27    1
    16     4     5   ar
    17     5     6   ar
    18     6     7   ar
    19     7    11    1
    20    11    12    1
    21    11    13    1
    22    11    14    1
    23     7     8   ar
    24     8     9   ar
    25     9    10   ar
    26    10     2   ar
    27    27    17    1
    28     9     5   ar
    29    26    20   ar
    30    15    16    1
@<TRIPOS>MOLECULE
*****
 27 30 0 0 0
SMALL
GASTEIGER

@<TRIPOS>ATOM
      1 C          62.6263   87.0106   18.6788 C.3     1  UNL1        0.0523
      2 C          62.8734   86.4018   17.3304 C.ar    1  UNL1        0.0653
      3 C          63.4686   87.2308   16.2309 C.ar    1  UNL1        0.0490
      4 C          63.7158   86.6220   14.8825 C.ar    1  UNL1        0.1342
      5 N          63.3678   85.1843   14.6335 N.ar    1  UNL1       -0.1816
      6 N          63.4964   84.3168   13.4166 N.ar    1  UNL1       -0.1409
      7 C          62.9807   82.9517   13.7639 C.ar    1  UNL1        0.2227
      8 N          62.5334   82.9756   15.1955 N.ar    1  UNL1       -0.1880
      9 C          62.7727   84.3554   15.7329 C.ar    1  UNL1        0.2552
     10 N          62.5255   84.9642   17.0813 N.ar    1  UNL1       -0.2142
     11 C          62.9225   81.7701   12.8416 C.3     1  UNL1        0.3163
     12 C          62.8644   80.5886   11.9193 C.3     1  UNL1        0.0805
     13 F          62.3320   82.6365   11.7689 F       1  UNL1       -0.1962
     14 F          63.5130   80.9038   13.9143 F       1  UNL1       -0.1962
     15 N          64.3109   87.4509   13.7830 N.pl3   1  UNL1       -0.3192
     16 H          65.2832   87.6023   13.7519 H       1  UNL1        0.1482
     17 C          63.4246   88.0491   12.7310 C.3     1  UNL1        0.0750
     18 C          63.2737   89.5384   12.6356 C.3     1  UNL1        0.0245
     19 C          62.3875   90.1365   11.5836 C.3     1  UNL1        0.0277
     20 C          61.6521   89.2453   10.6270 C.ar    1  UNL1       -0.0260
     21 C          60.7659   89.8435    9.5749 C.ar    1  UNL1       -0.0041
     22 C          60.0305   88.9523    8.6183 C.ar    1  UNL1        0.0064
     23 C          60.1815   87.4630    8.7138 C.ar    1  UNL1        0.0342
     24 BR         59.4462   86.5718    7.7572 Br      1  UNL1       -0.0490
     25 C          61.0677   86.8648    9.7658 C.ar    1  UNL1        0.0022
     26 C          61.8030   87.7560   10.7224 C.ar    1  UNL1       -0.0240
     27 C          62.6893   87.1579   11.7744 C.3     1  UNL1        0.0455
@<TRIPOS>BOND
     1     1     2    1
     2     2     3   ar
     3     3     4   ar
     4     4    15    1
     5    15    17    1
     6    17    18    1
     7    18    19    1
     8    19    20    1
     9    20    21   ar
    10    21    22   ar
    11    22    23   ar
    12    23    24    1
    13    23    25   ar
    14    25    26   ar
    15    26    27    1
    16     4     5   ar
    17     5     6   ar
    18     6     7   ar
    19     7    11    1
    20    11    12    1
    21    11    13    1
    22    11    14    1
    23     7     8   ar
    24     8     9   ar
    25     9    10   ar
    26    10     2   ar
    27    27    17    1
    28     9     5   ar
    29    26    20   ar
    30    15    16    1
@<TRIPOS>MOLECULE
*****
 27 30 0 0 0
SMALL
GASTEIGER

@<TRIPOS>ATOM
      1 C          61.6003   89.4955   11.0515 C.3     1  UNL1        0.0523
      2 C          62.6963   89.7320   12.0480 C.ar    1  UNL1        0.0653
      3 C          63.1070   88.6353   12.9855 C.ar    1  UNL1        0.0490
      4 C          64.2029   88.8718   13.9819 C.ar    1  UNL1        0.1342
      5 N          64.8882   90.2049   14.0409 N.ar    1  UNL1       -0.1816
      6 N          65.9931   90.7278   14.9102 N.ar    1  UNL1       -0.1409
      7 C          66.2653   92.1476   14.5099 C.ar    1  UNL1        0.2227
      8 N          65.3286   92.5021   13.3933 N.ar    1  UNL1       -0.1880
      9 C          64.4775   91.3014   13.1035 C.ar    1  UNL1        0.2552
     10 N          63.3815   91.0650   12.1070 N.ar    1  UNL1       -0.2142
     11 C          67.2937   93.0537   15.1194 C.3     1  UNL1        0.3163
     12 C          68.3221   93.9598   15.7288 C.3     1  UNL1        0.0805
     13 F          66.6791   94.2259   14.4137 F       1  UNL1       -0.1962
     14 F          67.9084   91.8815   15.8250 F       1  UNL1       -0.1962
     15 N          64.6137   87.7753   14.9194 N.pl3   1  UNL1       -0.3192
     16 H          65.2885   87.9492   15.6148 H       1  UNL1        0.1482
     17 C          63.9962   86.4137   14.7974 C.3     1  UNL1        0.0750
     18 C          63.2320   85.8307   15.9489 C.3     1  UNL1        0.0245
     19 C          62.6146   84.4692   15.8268 C.3     1  UNL1        0.0277
     20 C          62.7614   83.6906   14.5532 C.ar    1  UNL1       -0.0260
     21 C          62.1439   82.3290   14.4311 C.ar    1  UNL1       -0.0041
     22 C          62.2907   81.5503   13.1575 C.ar    1  UNL1        0.0064
     23 C          63.0550   82.1333   12.0059 C.ar    1  UNL1        0.0342
     24 BR         63.2018   81.3547   10.7322 Br      1  UNL1       -0.0490
     25 C          63.6724   83.4949   12.1280 C.ar    1  UNL1        0.0022
     26 C          63.5256   84.2735   13.4016 C.ar    1  UNL1       -0.0240
     27 C          64.1430   85.6350   13.5237 C.3     1  UNL1        0.0455
@<TRIPOS>BOND
     1     1     2    1
     2     2     3   ar
     3     3     4   ar
     4     4    15    1
     5    15    17    1
     6    17    18    1
     7    18    19    1
     8    19    20    1
     9    20    21   ar
    10    21    22   ar
    11    22    23   ar
    12    23    24    1
    13    23    25   ar
    14    25    26   ar
    15    26    27    1
    16     4     5   ar
    17     5     6   ar
    18     6     7   ar
    19     7    11    1
    20    11    12    1
    21    11    13    1
    22    11    14    1
    23     7     8   ar
    24     8     9   ar
    25     9    10   ar
    26    10     2   ar
    27    27    17    1
    28     9     5   ar
    29    26    20   ar
    30    15    16    1
@<TRIPOS>MOLECULE
*****
 27 30 0 0 0
SMALL
GASTEIGER

@<TRIPOS>ATOM
      1 C          62.7586   84.2457   11.1083 C.3     1  UNL1        0.0523
      2 C          62.1488   85.5383   10.6531 C.ar    1  UNL1        0.0653
      3 C          62.1290   86.7232   11.5728 C.ar    1  UNL1        0.0490
      4 C          61.5191   88.0158   11.1176 C.ar    1  UNL1        0.1342
      5 N          60.9290   88.1235    9.7427 N.ar    1  UNL1       -0.1816
      6 N          60.2641   89.2586    9.0221 N.ar    1  UNL1       -0.1409
      7 C          59.8728   88.7753    7.6571 C.ar    1  UNL1        0.2227
      8 N          60.2960   87.3415    7.5341 N.ar    1  UNL1       -0.1880
      9 C          60.9488   86.9387    8.8231 C.ar    1  UNL1        0.2552
     10 N          61.5587   85.6461    9.2783 N.ar    1  UNL1       -0.2142
     11 C          59.1800   89.5838    6.6005 C.3     1  UNL1        0.3163
     12 C          58.4873   90.3924    5.5440 C.3     1  UNL1        0.0805
     13 F          57.8603   89.0151    7.0305 F       1  UNL1       -0.1962
     14 F          60.4997   90.1526    6.1705 F       1  UNL1       -0.1962
     15 N          61.4994   89.2006   12.0372 N.pl3   1  UNL1       -0.3192
     16 H          60.7193   89.3618   12.6158 H       1  UNL1        0.1482
     17 C          62.6682   90.1400   12.0754 C.3     1  UNL1        0.0750
     18 C          63.0795   90.8764   10.8351 C.3     1  UNL1        0.0245
     19 C          64.2483   91.8157   10.8733 C.3     1  UNL1        0.0277
     20 C          65.0059   92.0186   12.1519 C.ar    1  UNL1       -0.0260
     21 C          66.1747   92.9580   12.1901 C.ar    1  UNL1       -0.0041
     22 C          66.9323   93.1610   13.4687 C.ar    1  UNL1        0.0064
     23 C          66.5210   92.4245   14.7092 C.ar    1  UNL1        0.0342
     24 BR         67.2786   92.6275   15.9878 Br      1  UNL1       -0.0490
     25 C          65.3522   91.4852   14.6709 C.ar    1  UNL1        0.0022
     26 C          64.5946   91.2823   13.3923 C.ar    1  UNL1       -0.0240
     27 C          63.4258   90.3430   13.3541 C.3     1  UNL1        0.0455
@<TRIPOS>BOND
     1     1     2    1
     2     2     3   ar
     3     3     4   ar
     4     4    15    1
     5    15    17    1
     6    17    18    1
     7    18    19    1
     8    19    20    1
     9    20    21   ar
    10    21    22   ar
    11    22    23   ar
    12    23    24    1
    13    23    25   ar
    14    25    26   ar
    15    26    27    1
    16     4     5   ar
    17     5     6   ar
    18     6     7   ar
    19     7    11    1
    20    11    12    1
    21    11    13    1
    22    11    14    1
    23     7     8   ar
    24     8     9   ar
    25     9    10   ar
    26    10     2   ar
    27    27    17    1
    28     9     5   ar
    29    26    20   ar
    30    15    16    1
@<TRIPOS>MOLECULE
*****
 27 30 0 0 0
SMALL
GASTEIGER

@<TRIPOS>ATOM
      1 C          62.3791   85.2709    6.7617 C.3     1  UNL1        0.0523
      2 C          62.4378   85.5084    8.2416 C.ar    1  UNL1        0.0653
      3 C          61.9431   86.8039    8.8136 C.ar    1  UNL1        0.0490
      4 C          62.0017   87.0413   10.2935 C.ar    1  UNL1        0.1342
      5 N          62.5551   85.9833   11.2015 N.ar    1  UNL1       -0.1816
      6 N          62.7383   85.9331   12.6894 N.ar    1  UNL1       -0.1409
      7 C          63.3463   84.6066   13.0370 C.ar    1  UNL1        0.2227
      8 N          63.5388   83.8370   11.7640 N.ar    1  UNL1       -0.1880
      9 C          63.0499   84.6879   10.6295 C.ar    1  UNL1        0.2552
     10 N          62.9912   84.4504    9.1496 N.ar    1  UNL1       -0.2142
     11 C          63.6997   84.1328   14.4157 C.3     1  UNL1        0.3163
     12 C          64.0530   83.6592   15.7944 C.3     1  UNL1        0.0805
     13 F          63.4826   82.7130   13.9836 F       1  UNL1       -0.1962
     14 F          63.9167   85.5527   14.8479 F       1  UNL1       -0.1962
     15 N          61.5070   88.3367   10.8655 N.pl3   1  UNL1       -0.3192
     16 H          60.5543   88.4440   11.0893 H       1  UNL1        0.1482
     17 C          62.4638   89.4686   11.0964 C.3     1  UNL1        0.0750
     18 C          62.7732   90.4276    9.9853 C.3     1  UNL1        0.0245
     19 C          63.7300   91.5595   10.2162 C.3     1  UNL1        0.0277
     20 C          64.3774   91.7324   11.5582 C.ar    1  UNL1       -0.0260
     21 C          65.3342   92.8644   11.7891 C.ar    1  UNL1       -0.0041
     22 C          65.9816   93.0373   13.1311 C.ar    1  UNL1        0.0064
     23 C          65.6721   92.0782   14.2422 C.ar    1  UNL1        0.0342
     24 BR         66.3195   92.2511   15.5843 Br      1  UNL1       -0.0490
     25 C          64.7154   90.9463   14.0113 C.ar    1  UNL1        0.0022
     26 C          64.0680   90.7734   12.6693 C.ar    1  UNL1       -0.0240
     27 C          63.1112   89.6415   12.4384 C.3     1  UNL1        0.0455
@<TRIPOS>BOND
     1     1     2    1
     2     2     3   ar
     3     3     4   ar
     4     4    15    1
     5    15    17    1
     6    17    18    1
     7    18    19    1
     8    19    20    1
     9    20    21   ar
    10    21    22   ar
    11    22    23   ar
    12    23    24    1
    13    23    25   ar
    14    25    26   ar
    15    26    27    1
    16     4     5   ar
    17     5     6   ar
    18     6     7   ar
    19     7    11    1
    20    11    12    1
    21    11    13    1
    22    11    14    1
    23     7     8   ar
    24     8     9   ar
    25     9    10   ar
    26    10     2   ar
    27    27    17    1
    28     9     5   ar
    29    26    20   ar
    30    15    16    1
