@<TRIPOS>MOLECULE
*****
 41 45 0 0 0
SMALL
GASTEIGER

@<TRIPOS>ATOM
      1 C          63.6256   86.5743   14.8243 C.2     1  UNL1        0.0332
      2 C          63.2551   87.3196   16.0721 C.2     1  UNL1        0.0101
      3 C          63.4454   88.8059   16.1424 C.2     1  UNL1        0.0255
      4 C          63.0749   89.5512   17.3904 C.3     1  UNL1        0.0351
      5 C          64.0062   89.5467   14.9649 C.2     1  UNL1        0.2278
      6 N          64.3042   90.9999   14.7426 N.2     1  UNL1       -0.0345
      7 C          64.8588   91.1527   13.3573 C.2     1  UNL1        0.3649
      8 N          64.9037   89.7939   12.7235 N.2     1  UNL1       -0.0380
      9 C          64.3767   88.8014   13.7170 C.2     1  UNL1        0.2184
     10 C          64.1864   87.3152   13.6467 C.3     1  UNL1        0.1186
     11 C          65.2925   92.4385   12.7180 C.3     1  UNL1        0.2250
     12 C          65.0698   92.6593   11.2512 C.2     1  UNL1        0.0436
     13 C          65.5035   93.9451   10.6120 C.2     1  UNL1        0.0288
     14 C          66.1599   95.0101   11.4396 C.2     1  UNL1        0.0896
     15 N          66.3826   94.7893   12.9064 N.am    1  UNL1       -0.1770
     16 C          65.9489   93.5035   13.5456 C.2     1  UNL1        0.2627
     17 O          66.1715   93.2827   15.0125 O.2     1  UNL1       -0.2719
     18 N          64.4135   91.5943   10.4235 N.pl3   1  UNL1       -0.3329
     19 H          64.9621   90.9081    9.9793 H       1  UNL1        0.1466
     20 C          62.9212   91.5748   10.2726 C.3     1  UNL1        0.1211
     21 C          62.1155   90.4913   10.9258 C.3     1  UNL1        0.1522
     22 O          61.7951   90.5731   12.3889 O.3     1  UNL1       -0.3783
     23 H          62.1805   91.3825   12.7594 H       1  UNL1        0.2109
     24 C          61.6301   89.3258   10.1158 C.ar    1  UNL1        0.0067
     25 C          60.4102   89.4671    9.2545 C.ar    1  UNL1       -0.0018
     26 C          59.9249   88.3016    8.4445 C.ar    1  UNL1        0.0006
     27 C          60.6594   86.9948    8.4958 C.ar    1  UNL1        0.0114
     28 C          61.8792   86.8535    9.3571 C.ar    1  UNL1        0.0574
     29 CL         62.6138   85.5466    9.4084 Cl      1  UNL1       -0.0823
     30 C          62.3646   88.0189   10.1671 C.ar    1  UNL1        0.0095
     31 C          63.0545   82.1157   14.6131 C.3     1  UNL1        0.1188
     32 C          61.8986   83.0040   14.9664 C.3     1  UNL1        0.0510
     33 C          62.0890   84.4902   15.0368 C.3     1  UNL1        0.0930
     34 N          63.4353   85.0880   14.7539 N.pl3   1  UNL1       -0.3102
     35 C          64.5911   84.1998   14.4006 C.3     1  UNL1        0.0930
     36 C          64.4008   82.7135   14.3302 C.3     1  UNL1        0.0510
     37 O          62.8642   80.6295   14.5427 O.3     1  UNL1       -0.3535
     38 C          62.2425   80.0098   13.3264 C.3     1  UNL1        0.1740
     39 C          62.7885   80.3203   11.9642 C.3     1  UNL1        0.1742
     40 C          63.9107   82.2548   10.6420 C.3     1  UNL1        0.1742
     41 O          62.7605   81.7284   11.4482 O.3     1  UNL1       -0.3484
@<TRIPOS>BOND
     1    40    41    1
     2    41    39    1
     3    39    38    1
     4    38    37    1
     5    37    31    1
     6    31    32    1
     7    32    33    1
     8    33    34    1
     9    34     1    1
    10     1     2    2
    11     2     3    1
    12     3     4    1
    13     3     5    2
    14     5     6    1
    15     6     7    2
    16     7    11    1
    17    11    12    1
    18    12    18    1
    19    18    20    1
    20    20    21    1
    21    21    22    1
    22    21    24    1
    23    24    25   ar
    24    25    26   ar
    25    26    27   ar
    26    27    28   ar
    27    28    29    1
    28    28    30   ar
    29    12    13    2
    30    13    14    1
    31    14    15    2
    32    15    16    1
    33    16    17    2
    34     7     8    1
    35     8     9    2
    36     9    10    1
    37    34    35    1
    38    35    36    1
    39    36    31    1
    40    10     1    1
    41     9     5    1
    42    16    11    1
    43    30    24   ar
    44    18    19    1
    45    22    23    1
@<TRIPOS>MOLECULE
*****
 41 45 0 0 0
SMALL
GASTEIGER

@<TRIPOS>ATOM
      1 C          62.9832   84.9828   12.1087 C.2     1  UNL1        0.0332
      2 C          62.3636   85.8533   11.0561 C.2     1  UNL1        0.0101
      3 C          62.4295   87.3465   11.1833 C.2     1  UNL1        0.0255
      4 C          61.8098   88.2171   10.1306 C.3     1  UNL1        0.0351
      5 C          63.1151   87.9691   12.3633 C.2     1  UNL1        0.2278
      6 N          63.3363   89.3998   12.7558 N.2     1  UNL1       -0.0345
      7 C          64.0927   89.4135   14.0510 C.2     1  UNL1        0.3649
      8 N          64.3390   87.9912   14.4591 N.2     1  UNL1       -0.0380
      9 C          63.7348   87.0985   13.4160 C.2     1  UNL1        0.2184
     10 C          63.6688   85.6054   13.2887 C.3     1  UNL1        0.1186
     11 C          64.5266   90.6350   14.8058 C.3     1  UNL1        0.2250
     12 C          65.5224   91.5778   14.1980 C.2     1  UNL1        0.0436
     13 C          65.9563   92.7993   14.9529 C.2     1  UNL1        0.0288
     14 C          65.3944   93.0780   16.3154 C.2     1  UNL1        0.0896
     15 N          64.3986   92.1352   16.9232 N.am    1  UNL1       -0.1770
     16 C          63.9647   90.9137   16.1684 C.2     1  UNL1        0.2627
     17 O          62.9689   89.9708   16.7762 O.2     1  UNL1       -0.2719
     18 N          66.0844   91.2992   12.8355 N.pl3   1  UNL1       -0.3329
     19 H          65.6736   90.6098   12.2652 H       1  UNL1        0.1466
     20 C          67.2720   92.0710   12.3418 C.3     1  UNL1        0.1211
     21 C          67.2840   92.6164   10.9445 C.3     1  UNL1        0.1522
     22 O          67.7287   91.7489    9.8045 O.3     1  UNL1       -0.3783
     23 H          67.9728   90.8726   10.1412 H       1  UNL1        0.2109
     24 C          66.8511   94.0294   10.6873 C.ar    1  UNL1        0.0067
     25 C          66.3172   94.8668   11.8115 C.ar    1  UNL1       -0.0018
     26 C          65.8844   96.2797   11.5543 C.ar    1  UNL1        0.0006
     27 C          65.9854   96.8554   10.1728 C.ar    1  UNL1        0.0114
     28 C          66.5192   96.0180    9.0486 C.ar    1  UNL1        0.0574
     29 CL         66.6202   96.5937    7.6672 Cl      1  UNL1       -0.0823
     30 C          66.9521   94.6051    9.3059 C.ar    1  UNL1        0.0095
     31 C          62.7854   80.5034   11.7271 C.3     1  UNL1        0.1188
     32 C          62.4447   81.1608   13.0316 C.3     1  UNL1        0.0510
     33 C          62.5106   82.6539   13.1588 C.3     1  UNL1        0.0930
     34 N          62.9173   83.4896   11.9815 N.pl3   1  UNL1       -0.3102
     35 C          63.2580   82.8323   10.6770 C.3     1  UNL1        0.0930
     36 C          63.1921   81.3391   10.5498 C.3     1  UNL1        0.0510
     37 O          62.7195   79.0102   11.6000 O.3     1  UNL1       -0.3535
     38 C          62.8149   78.3678   10.2479 C.3     1  UNL1        0.1740
     39 C          63.5441   77.0669   10.0855 C.3     1  UNL1        0.1742
     40 C          65.1288   75.6695    8.5737 C.3     1  UNL1        0.1742
     41 O          64.7376   76.9842    9.1807 O.3     1  UNL1       -0.3484
@<TRIPOS>BOND
     1    40    41    1
     2    41    39    1
     3    39    38    1
     4    38    37    1
     5    37    31    1
     6    31    32    1
     7    32    33    1
     8    33    34    1
     9    34     1    1
    10     1     2    2
    11     2     3    1
    12     3     4    1
    13     3     5    2
    14     5     6    1
    15     6     7    2
    16     7    11    1
    17    11    12    1
    18    12    18    1
    19    18    20    1
    20    20    21    1
    21    21    22    1
    22    21    24    1
    23    24    25   ar
    24    25    26   ar
    25    26    27   ar
    26    27    28   ar
    27    28    29    1
    28    28    30   ar
    29    12    13    2
    30    13    14    1
    31    14    15    2
    32    15    16    1
    33    16    17    2
    34     7     8    1
    35     8     9    2
    36     9    10    1
    37    34    35    1
    38    35    36    1
    39    36    31    1
    40    10     1    1
    41     9     5    1
    42    16    11    1
    43    30    24   ar
    44    18    19    1
    45    22    23    1
@<TRIPOS>MOLECULE
*****
 41 45 0 0 0
SMALL
GASTEIGER

@<TRIPOS>ATOM
      1 C          60.1688   89.1084    8.2176 C.2     1  UNL1        0.0332
      2 C          59.5987   89.4933    9.5505 C.2     1  UNL1        0.0101
      3 C          59.9660   88.7121   10.7772 C.2     1  UNL1        0.0255
      4 C          59.3958   89.0970   12.1102 C.3     1  UNL1        0.0351
      5 C          60.9034   87.5459   10.6709 C.2     1  UNL1        0.2278
      6 N          61.4436   86.5956   11.6980 N.2     1  UNL1       -0.0345
      7 C          62.3477   85.6234   10.9998 C.2     1  UNL1        0.3649
      8 N          62.3662   85.9728    9.5412 N.2     1  UNL1       -0.0380
      9 C          61.4735   87.1611    9.3379 C.2     1  UNL1        0.2184
     10 C          61.1062   87.9423    8.1113 C.3     1  UNL1        0.1186
     11 C          63.1010   84.4990   11.6466 C.3     1  UNL1        0.2250
     12 C          63.5155   84.6033   13.0844 C.2     1  UNL1        0.0436
     13 C          64.2688   83.4789   13.7312 C.2     1  UNL1        0.0288
     14 C          64.6077   82.2503   12.9402 C.2     1  UNL1        0.0896
     15 N          64.1932   82.1460   11.5024 N.am    1  UNL1       -0.1770
     16 C          63.4398   83.2704   10.8556 C.2     1  UNL1        0.2627
     17 O          63.0254   83.1662    9.4178 O.2     1  UNL1       -0.2719
     18 N          63.1767   85.8318   13.8755 N.pl3   1  UNL1       -0.3329
     19 H          62.2352   86.0615   14.0489 H       1  UNL1        0.1466
     20 C          64.2723   86.7105   14.4024 C.3     1  UNL1        0.1211
     21 C          63.9486   88.0746   14.9356 C.3     1  UNL1        0.1522
     22 O          63.4242   88.2289   16.3324 O.3     1  UNL1       -0.3783
     23 H          63.3544   87.3561   16.7498 H       1  UNL1        0.2109
     24 C          64.1494   89.2845   14.0719 C.ar    1  UNL1        0.0067
     25 C          65.0922   90.3675   14.5056 C.ar    1  UNL1       -0.0018
     26 C          65.2930   91.5774   13.6419 C.ar    1  UNL1        0.0006
     27 C          64.5509   91.7043   12.3445 C.ar    1  UNL1        0.0114
     28 C          63.6081   90.6212   11.9109 C.ar    1  UNL1        0.0574
     29 CL         62.8660   90.7481   10.6135 Cl      1  UNL1       -0.0823
     30 C          63.4073   89.4114   12.7745 C.ar    1  UNL1        0.0095
     31 C          59.0668   91.4521    4.5375 C.3     1  UNL1        0.1188
     32 C          57.9910   90.8981    5.4240 C.3     1  UNL1        0.0510
     33 C          58.3583   90.1169    6.6506 C.3     1  UNL1        0.0930
     34 N          59.8015   89.8897    6.9908 N.pl3   1  UNL1       -0.3102
     35 C          60.8772   90.4436    6.1044 C.3     1  UNL1        0.0930
     36 C          60.5099   91.2249    4.8777 C.3     1  UNL1        0.0510
     37 O          58.6994   92.2333    3.3108 O.3     1  UNL1       -0.3535
     38 C          59.7347   93.0651    2.6134 C.3     1  UNL1        0.1740
     39 C          60.2128   92.6758    1.2459 C.3     1  UNL1        0.1742
     40 C          62.6653   92.5393    2.0922 C.3     1  UNL1        0.1742
     41 O          61.6346   92.2426    1.0437 O.3     1  UNL1       -0.3484
@<TRIPOS>BOND
     1    40    41    1
     2    41    39    1
     3    39    38    1
     4    38    37    1
     5    37    31    1
     6    31    32    1
     7    32    33    1
     8    33    34    1
     9    34     1    1
    10     1     2    2
    11     2     3    1
    12     3     4    1
    13     3     5    2
    14     5     6    1
    15     6     7    2
    16     7    11    1
    17    11    12    1
    18    12    18    1
    19    18    20    1
    20    20    21    1
    21    21    22    1
    22    21    24    1
    23    24    25   ar
    24    25    26   ar
    25    26    27   ar
    26    27    28   ar
    27    28    29    1
    28    28    30   ar
    29    12    13    2
    30    13    14    1
    31    14    15    2
    32    15    16    1
    33    16    17    2
    34     7     8    1
    35     8     9    2
    36     9    10    1
    37    34    35    1
    38    35    36    1
    39    36    31    1
    40    10     1    1
    41     9     5    1
    42    16    11    1
    43    30    24   ar
    44    18    19    1
    45    22    23    1
@<TRIPOS>MOLECULE
*****
 41 45 0 0 0
SMALL
GASTEIGER

@<TRIPOS>ATOM
      1 C          60.1441   88.9925    8.2043 C.2     1  UNL1        0.0332
      2 C          59.6665   89.4025    9.5658 C.2     1  UNL1        0.0101
      3 C          60.0434   88.5900   10.7691 C.2     1  UNL1        0.0255
      4 C          59.5657   89.0001   12.1306 C.3     1  UNL1        0.0351
      5 C          60.8979   87.3674   10.6107 C.2     1  UNL1        0.2278
      6 N          61.4265   86.3767   11.6052 N.2     1  UNL1       -0.0345
      7 C          62.2308   85.3543   10.8583 C.2     1  UNL1        0.3649
      8 N          62.1993   85.7132    9.4022 N.2     1  UNL1       -0.0380
      9 C          61.3755   86.9574    9.2492 C.2     1  UNL1        0.2184
     10 C          60.9986   87.7699    8.0460 C.3     1  UNL1        0.1186
     11 C          62.9417   84.1793   11.4615 C.3     1  UNL1        0.2250
     12 C          62.8709   83.9382   12.9403 C.2     1  UNL1        0.0436
     13 C          63.5819   82.7632   13.5435 C.2     1  UNL1        0.0288
     14 C          64.3637   81.8293   12.6680 C.2     1  UNL1        0.0896
     15 N          64.4346   82.0704   11.1892 N.am    1  UNL1       -0.1770
     16 C          63.7236   83.2455   10.5860 C.2     1  UNL1        0.2627
     17 O          63.7945   83.4866    9.1072 O.2     1  UNL1       -0.2719
     18 N          62.0890   84.8720   13.8159 N.pl3   1  UNL1       -0.3329
     19 H          61.2963   85.3339   13.4588 H       1  UNL1        0.1466
     20 C          62.5149   85.1021   15.2357 C.3     1  UNL1        0.1211
     21 C          63.7732   85.8649   15.5270 C.3     1  UNL1        0.1522
     22 O          65.0678   85.1315   15.7173 O.3     1  UNL1       -0.3783
     23 H          64.9167   84.1783   15.6202 H       1  UNL1        0.2109
     24 C          63.7369   87.3610   15.6279 C.ar    1  UNL1        0.0067
     25 C          63.1369   88.0169   16.8361 C.ar    1  UNL1       -0.0018
     26 C          63.1006   89.5131   16.9371 C.ar    1  UNL1        0.0006
     27 C          63.6643   90.3534   15.8298 C.ar    1  UNL1        0.0114
     28 C          64.2643   89.6975   14.6216 C.ar    1  UNL1        0.0574
     29 CL         64.8281   90.5379   13.5144 Cl      1  UNL1       -0.0823
     30 C          64.3006   88.2014   14.5207 C.ar    1  UNL1        0.0095
     31 C          59.0133   91.4301    4.5946 C.3     1  UNL1        0.1188
     32 C          57.9446   90.8568    5.4773 C.3     1  UNL1        0.0510
     33 C          58.3215   90.0443    6.6805 C.3     1  UNL1        0.0930
     34 N          59.7672   89.8051    7.0010 N.pl3   1  UNL1       -0.3102
     35 C          60.8359   90.3783    6.1184 C.3     1  UNL1        0.0930
     36 C          60.4590   91.1908    4.9151 C.3     1  UNL1        0.0510
     37 O          58.6364   92.2426    3.3914 O.3     1  UNL1       -0.3535
     38 C          59.6843   93.0244    2.6561 C.3     1  UNL1        0.1740
     39 C          60.0789   92.6260    1.2648 C.3     1  UNL1        0.1742
     40 C          62.5606   92.3299    1.9742 C.3     1  UNL1        0.1742
     41 O          61.5294   92.5124    0.9002 O.3     1  UNL1       -0.3484
@<TRIPOS>BOND
     1    40    41    1
     2    41    39    1
     3    39    38    1
     4    38    37    1
     5    37    31    1
     6    31    32    1
     7    32    33    1
     8    33    34    1
     9    34     1    1
    10     1     2    2
    11     2     3    1
    12     3     4    1
    13     3     5    2
    14     5     6    1
    15     6     7    2
    16     7    11    1
    17    11    12    1
    18    12    18    1
    19    18    20    1
    20    20    21    1
    21    21    22    1
    22    21    24    1
    23    24    25   ar
    24    25    26   ar
    25    26    27   ar
    26    27    28   ar
    27    28    29    1
    28    28    30   ar
    29    12    13    2
    30    13    14    1
    31    14    15    2
    32    15    16    1
    33    16    17    2
    34     7     8    1
    35     8     9    2
    36     9    10    1
    37    34    35    1
    38    35    36    1
    39    36    31    1
    40    10     1    1
    41     9     5    1
    42    16    11    1
    43    30    24   ar
    44    18    19    1
    45    22    23    1
@<TRIPOS>MOLECULE
*****
 41 45 0 0 0
SMALL
GASTEIGER

@<TRIPOS>ATOM
      1 C          59.7382   89.9807    6.4836 C.2     1  UNL1        0.0332
      2 C          58.3287   90.4154    6.2112 C.2     1  UNL1        0.0101
      3 C          58.0377   91.3450    5.0704 C.2     1  UNL1        0.0255
      4 C          56.6281   91.7796    4.7980 C.3     1  UNL1        0.0351
      5 C          59.1563   91.8397    4.2021 C.2     1  UNL1        0.2278
      6 N          59.1751   92.7561    3.0147 N.2     1  UNL1       -0.0345
      7 C          60.5963   92.8878    2.5533 C.2     1  UNL1        0.3649
      8 N          61.4558   92.0527    3.4555 N.2     1  UNL1       -0.0380
      9 C          60.5658   91.4050    4.4745 C.2     1  UNL1        0.2184
     10 C          60.8568   90.4755    5.6153 C.3     1  UNL1        0.1186
     11 C          61.0741   93.7101    1.3934 C.3     1  UNL1        0.2250
     12 C          60.1363   94.0379    0.2695 C.2     1  UNL1        0.0436
     13 C          60.6142   94.8602   -0.8904 C.2     1  UNL1        0.0288
     14 C          62.0299   95.3547   -0.9265 C.2     1  UNL1        0.0896
     15 N          62.9677   95.0270    0.1973 N.am    1  UNL1       -0.1770
     16 C          62.4898   94.2046    1.3573 C.2     1  UNL1        0.2627
     17 O          63.4276   93.8769    2.4811 O.2     1  UNL1       -0.2719
     18 N          58.7206   93.5434    0.3055 N.pl3   1  UNL1       -0.3329
     19 H          58.3989   93.0278    1.0801 H       1  UNL1        0.1466
     20 C          57.7952   93.8342   -0.8385 C.3     1  UNL1        0.1211
     21 C          57.3219   92.7187   -1.7226 C.3     1  UNL1        0.1522
     22 O          56.7407   91.4761   -1.1160 O.3     1  UNL1       -0.3783
     23 H          56.7440   91.5561   -0.1494 H       1  UNL1        0.2109
     24 C          57.4299   92.8459   -3.2133 C.ar    1  UNL1        0.0067
     25 C          58.4767   93.7350   -3.8164 C.ar    1  UNL1       -0.0018
     26 C          58.5847   93.8622   -5.3070 C.ar    1  UNL1        0.0006
     27 C          57.6458   93.1002   -6.1948 C.ar    1  UNL1        0.0114
     28 C          56.5990   92.2112   -5.5917 C.ar    1  UNL1        0.0574
     29 CL         55.6602   91.4493   -6.4794 Cl      1  UNL1       -0.0823
     30 C          56.4910   92.0840   -4.1010 C.ar    1  UNL1        0.0095
     31 C          60.6113   87.1921    9.9058 C.3     1  UNL1        0.1188
     32 C          60.0931   86.6473    8.6079 C.3     1  UNL1        0.0510
     33 C          59.8021   87.5769    7.4671 C.3     1  UNL1        0.0930
     34 N          60.0292   89.0512    7.6244 N.pl3   1  UNL1       -0.3102
     35 C          60.5474   89.5960    8.9223 C.3     1  UNL1        0.0930
     36 C          60.8384   88.6664   10.0631 C.3     1  UNL1        0.0510
     37 O          60.9023   86.2625   11.0465 O.3     1  UNL1       -0.3535
     38 C          62.0496   85.3006   10.9561 C.3     1  UNL1        0.1740
     39 C          62.4833   84.5343   12.1706 C.3     1  UNL1        0.1742
     40 C          64.3359   83.1052   11.0412 C.3     1  UNL1        0.1742
     41 O          63.8429   83.9022   12.2125 O.3     1  UNL1       -0.3484
@<TRIPOS>BOND
     1    40    41    1
     2    41    39    1
     3    39    38    1
     4    38    37    1
     5    37    31    1
     6    31    32    1
     7    32    33    1
     8    33    34    1
     9    34     1    1
    10     1     2    2
    11     2     3    1
    12     3     4    1
    13     3     5    2
    14     5     6    1
    15     6     7    2
    16     7    11    1
    17    11    12    1
    18    12    18    1
    19    18    20    1
    20    20    21    1
    21    21    22    1
    22    21    24    1
    23    24    25   ar
    24    25    26   ar
    25    26    27   ar
    26    27    28   ar
    27    28    29    1
    28    28    30   ar
    29    12    13    2
    30    13    14    1
    31    14    15    2
    32    15    16    1
    33    16    17    2
    34     7     8    1
    35     8     9    2
    36     9    10    1
    37    34    35    1
    38    35    36    1
    39    36    31    1
    40    10     1    1
    41     9     5    1
    42    16    11    1
    43    30    24   ar
    44    18    19    1
    45    22    23    1
@<TRIPOS>MOLECULE
*****
 41 45 0 0 0
SMALL
GASTEIGER

@<TRIPOS>ATOM
      1 C          63.7311   86.6154   14.7550 C.2     1  UNL1        0.0332
      2 C          63.3299   87.3556   15.9964 C.2     1  UNL1        0.0101
      3 C          63.4893   88.8455   16.0659 C.2     1  UNL1        0.0255
      4 C          63.0881   89.5857   17.3073 C.3     1  UNL1        0.0351
      5 C          64.0500   89.5952   14.8939 C.2     1  UNL1        0.2278
      6 N          64.3215   91.0536   14.6721 N.2     1  UNL1       -0.0345
      7 C          64.8904   91.2148   13.2936 C.2     1  UNL1        0.3649
      8 N          64.9707   89.8560   12.6634 N.2     1  UNL1       -0.0380
      9 C          64.4512   88.8549   13.6524 C.2     1  UNL1        0.2184
     10 C          64.2918   87.3651   13.5830 C.3     1  UNL1        0.1186
     11 C          65.3062   92.5078   12.6570 C.3     1  UNL1        0.2250
     12 C          65.0789   92.7292   11.1910 C.2     1  UNL1        0.0436
     13 C          65.4947   94.0223   10.5544 C.2     1  UNL1        0.0288
     14 C          66.1379   95.0939   11.3839 C.2     1  UNL1        0.0896
     15 N          66.3652   94.8725   12.8499 N.am    1  UNL1       -0.1770
     16 C          65.9494   93.5794   13.4864 C.2     1  UNL1        0.2627
     17 O          66.1768   93.3580   14.9525 O.2     1  UNL1       -0.2719
     18 N          64.4357   91.6577   10.3615 N.pl3   1  UNL1       -0.3329
     19 H          64.9945   90.9993    9.8887 H       1  UNL1        0.1466
     20 C          62.9413   91.5892   10.2522 C.3     1  UNL1        0.1211
     21 C          62.1867   90.5018   10.9580 C.3     1  UNL1        0.1522
     22 O          61.8856   90.6266   12.4222 O.3     1  UNL1       -0.3783
     23 H          62.2459   91.4629   12.7563 H       1  UNL1        0.2109
     24 C          61.7333   89.2897   10.1997 C.ar    1  UNL1        0.0067
     25 C          62.4143   87.9710   10.4167 C.ar    1  UNL1       -0.0018
     26 C          61.9609   86.7589    9.6583 C.ar    1  UNL1        0.0006
     27 C          60.8263   86.8655    8.6829 C.ar    1  UNL1        0.0114
     28 C          60.1453   88.1842    8.4658 C.ar    1  UNL1        0.0574
     29 CL         59.0108   88.2908    7.4904 Cl      1  UNL1       -0.0823
     30 C          60.5988   89.3963    9.2242 C.ar    1  UNL1        0.0095
     31 C          63.2528   82.1457   14.5465 C.3     1  UNL1        0.1188
     32 C          64.4338   82.8048   13.8977 C.3     1  UNL1        0.0510
     33 C          64.5932   84.2946   13.9672 C.3     1  UNL1        0.0930
     34 N          63.5716   85.1255   14.6855 N.pl3   1  UNL1       -0.3102
     35 C          62.3907   84.4665   15.3343 C.3     1  UNL1        0.0930
     36 C          62.2312   82.9766   15.2649 C.3     1  UNL1        0.0510
     37 O          63.0934   80.6558   14.4770 O.3     1  UNL1       -0.3535
     38 C          61.9807   80.0576   13.6684 C.3     1  UNL1        0.1740
     39 C          60.6310   80.7119   13.6504 C.3     1  UNL1        0.1742
     40 C          58.7255   79.1874   14.5418 C.3     1  UNL1        0.1742
     41 O          59.6218   80.3785   14.7088 O.3     1  UNL1       -0.3484
@<TRIPOS>BOND
     1    40    41    1
     2    41    39    1
     3    39    38    1
     4    38    37    1
     5    37    31    1
     6    31    32    1
     7    32    33    1
     8    33    34    1
     9    34     1    1
    10     1     2    2
    11     2     3    1
    12     3     4    1
    13     3     5    2
    14     5     6    1
    15     6     7    2
    16     7    11    1
    17    11    12    1
    18    12    18    1
    19    18    20    1
    20    20    21    1
    21    21    22    1
    22    21    24    1
    23    24    25   ar
    24    25    26   ar
    25    26    27   ar
    26    27    28   ar
    27    28    29    1
    28    28    30   ar
    29    12    13    2
    30    13    14    1
    31    14    15    2
    32    15    16    1
    33    16    17    2
    34     7     8    1
    35     8     9    2
    36     9    10    1
    37    34    35    1
    38    35    36    1
    39    36    31    1
    40    10     1    1
    41     9     5    1
    42    16    11    1
    43    30    24   ar
    44    18    19    1
    45    22    23    1
@<TRIPOS>MOLECULE
*****
 41 45 0 0 0
SMALL
GASTEIGER

@<TRIPOS>ATOM
      1 C          63.4367   85.6086   14.8434 C.2     1  UNL1        0.0332
      2 C          63.0781   86.1797   16.1832 C.2     1  UNL1        0.0101
      3 C          63.2930   87.6385   16.4587 C.2     1  UNL1        0.0255
      4 C          62.9344   88.2096   17.7986 C.3     1  UNL1        0.0351
      5 C          63.8666   88.5261   15.3942 C.2     1  UNL1        0.2278
      6 N          64.1887   89.9910   15.3750 N.2     1  UNL1       -0.0345
      7 C          64.7464   90.3252   14.0232 C.2     1  UNL1        0.3649
      8 N          64.7689   89.0669   13.2070 N.2     1  UNL1       -0.0380
      9 C          64.2251   87.9550   14.0543 C.2     1  UNL1        0.2184
     10 C          64.0102   86.4963   13.7789 C.3     1  UNL1        0.1186
     11 C          65.2016   91.6799   13.5676 C.3     1  UNL1        0.2250
     12 C          64.9425   92.1235   12.1583 C.2     1  UNL1        0.0436
     13 C          65.3978   93.4782   11.7028 C.2     1  UNL1        0.0288
     14 C          66.1121   94.3893   12.6564 C.2     1  UNL1        0.0896
     15 N          66.3712   93.9458   14.0657 N.am    1  UNL1       -0.1770
     16 C          65.9159   92.5911   14.5213 C.2     1  UNL1        0.2627
     17 O          66.1750   92.1475   15.9306 O.2     1  UNL1       -0.2719
     18 N          64.2282   91.2124   11.2046 N.pl3   1  UNL1       -0.3329
     19 H          64.7431   90.6137   10.6166 H       1  UNL1        0.1466
     20 C          62.7293   91.2134   11.1466 C.3     1  UNL1        0.1211
     21 C          61.9574   90.0430   11.6797 C.3     1  UNL1        0.1522
     22 O          61.6958   89.9250   13.1520 O.3     1  UNL1       -0.3783
     23 H          62.0908   90.6820   13.6123 H       1  UNL1        0.2109
     24 C          61.4470   88.9907   10.7406 C.ar    1  UNL1        0.0067
     25 C          61.6913   87.5403   11.0350 C.ar    1  UNL1       -0.0018
     26 C          61.1809   86.4880   10.0959 C.ar    1  UNL1        0.0006
     27 C          60.4261   86.8859    8.8622 C.ar    1  UNL1        0.0114
     28 C          60.1818   88.3363    8.5677 C.ar    1  UNL1        0.0574
     29 CL         59.4271   88.7343    7.3340 Cl      1  UNL1       -0.0823
     30 C          60.6922   89.3886    9.5069 C.ar    1  UNL1        0.0095
     31 C          62.7920   81.2323   14.0171 C.3     1  UNL1        0.1188
     32 C          64.1601   81.8297   13.8705 C.3     1  UNL1        0.0510
     33 C          64.3750   83.2885   14.1459 C.3     1  UNL1        0.0930
     34 N          63.2217   84.1498   14.5680 N.pl3   1  UNL1       -0.3102
     35 C          61.8537   83.5525   14.7145 C.3     1  UNL1        0.0930
     36 C          61.6388   82.0937   14.4391 C.3     1  UNL1        0.0510
     37 O          62.5772   79.7736   13.7416 O.3     1  UNL1       -0.3535
     38 C          62.5145   79.2788   12.3270 C.3     1  UNL1        0.1740
     39 C          62.8530   80.2017   11.1939 C.3     1  UNL1        0.1742
     40 C          63.3926   78.5733    9.2428 C.3     1  UNL1        0.1742
     41 O          62.6429   79.7577    9.7767 O.3     1  UNL1       -0.3484
@<TRIPOS>BOND
     1    40    41    1
     2    41    39    1
     3    39    38    1
     4    38    37    1
     5    37    31    1
     6    31    32    1
     7    32    33    1
     8    33    34    1
     9    34     1    1
    10     1     2    2
    11     2     3    1
    12     3     4    1
    13     3     5    2
    14     5     6    1
    15     6     7    2
    16     7    11    1
    17    11    12    1
    18    12    18    1
    19    18    20    1
    20    20    21    1
    21    21    22    1
    22    21    24    1
    23    24    25   ar
    24    25    26   ar
    25    26    27   ar
    26    27    28   ar
    27    28    29    1
    28    28    30   ar
    29    12    13    2
    30    13    14    1
    31    14    15    2
    32    15    16    1
    33    16    17    2
    34     7     8    1
    35     8     9    2
    36     9    10    1
    37    34    35    1
    38    35    36    1
    39    36    31    1
    40    10     1    1
    41     9     5    1
    42    16    11    1
    43    30    24   ar
    44    18    19    1
    45    22    23    1
@<TRIPOS>MOLECULE
*****
 41 45 0 0 0
SMALL
GASTEIGER

@<TRIPOS>ATOM
      1 C          60.2736   93.0159    2.4515 C.2     1  UNL1        0.0332
      2 C          60.3275   94.5071    2.6028 C.2     1  UNL1        0.0101
      3 C          60.7361   95.3646    1.4417 C.2     1  UNL1        0.0255
      4 C          60.7900   96.8560    1.5931 C.3     1  UNL1        0.0351
      5 C          61.0909   94.7305    0.1295 C.2     1  UNL1        0.2278
      6 N          61.5267   95.3140   -1.1819 N.2     1  UNL1       -0.0345
      7 C          61.7422   94.1832   -2.1436 C.2     1  UNL1        0.3649
      8 N          61.4395   92.9009   -1.4266 N.2     1  UNL1       -0.0380
      9 C          61.0370   93.2391   -0.0218 C.2     1  UNL1        0.2184
     10 C          60.6283   92.3818    1.1392 C.3     1  UNL1        0.1186
     11 C          62.1829   94.3121   -3.5716 C.3     1  UNL1        0.2250
     12 C          61.5422   95.3325   -4.4650 C.2     1  UNL1        0.0436
     13 C          61.9830   95.4613   -5.8930 C.2     1  UNL1        0.0288
     14 C          63.0645   94.5698   -6.4275 C.2     1  UNL1        0.0896
     15 N          63.7052   93.5495   -5.5341 N.am    1  UNL1       -0.1770
     16 C          63.2643   93.4206   -4.1061 C.2     1  UNL1        0.2627
     17 O          63.9050   92.4003   -3.2126 O.2     1  UNL1       -0.2719
     18 N          60.4608   96.2240   -3.9306 N.pl3   1  UNL1       -0.3329
     19 H          60.6797   96.9244   -3.2743 H       1  UNL1        0.1466
     20 C          59.0457   96.0484   -4.3961 C.3     1  UNL1        0.1211
     21 C          58.5148   94.6748   -4.6809 C.3     1  UNL1        0.1522
     22 O          58.5931   94.1134   -6.0696 O.3     1  UNL1       -0.3783
     23 H          59.0113   94.7618   -6.6574 H       1  UNL1        0.2109
     24 C          57.9055   93.8624   -3.5768 C.ar    1  UNL1        0.0067
     25 C          58.0861   94.2833   -2.1485 C.ar    1  UNL1       -0.0018
     26 C          57.4769   93.4710   -1.0444 C.ar    1  UNL1        0.0006
     27 C          56.6870   92.2378   -1.3686 C.ar    1  UNL1        0.0114
     28 C          56.5064   91.8169   -2.7970 C.ar    1  UNL1        0.0574
     29 CL         55.7165   90.5836   -3.1212 Cl      1  UNL1       -0.0823
     30 C          57.1156   92.6292   -3.9010 C.ar    1  UNL1        0.0095
     31 C          59.0478   90.4436    5.9346 C.3     1  UNL1        0.1188
     32 C          60.4861   90.4984    5.5122 C.3     1  UNL1        0.0510
     33 C          60.8946   91.3558    4.3512 C.3     1  UNL1        0.0930
     34 N          59.8649   92.1584    3.6126 N.pl3   1  UNL1       -0.3102
     35 C          58.4268   92.1036    4.0349 C.3     1  UNL1        0.0930
     36 C          58.0181   91.2462    5.1960 C.3     1  UNL1        0.0510
     37 O          58.6393   89.5862    7.0956 O.3     1  UNL1       -0.3535
     38 C          59.3628   88.3014    7.3703 C.3     1  UNL1        0.1740
     39 C          60.1986   88.1611    8.6080 C.3     1  UNL1        0.1742
     40 C          60.1154   90.0916   10.3448 C.3     1  UNL1        0.1742
     41 O          60.8220   89.3737    9.2333 O.3     1  UNL1       -0.3484
@<TRIPOS>BOND
     1    40    41    1
     2    41    39    1
     3    39    38    1
     4    38    37    1
     5    37    31    1
     6    31    32    1
     7    32    33    1
     8    33    34    1
     9    34     1    1
    10     1     2    2
    11     2     3    1
    12     3     4    1
    13     3     5    2
    14     5     6    1
    15     6     7    2
    16     7    11    1
    17    11    12    1
    18    12    18    1
    19    18    20    1
    20    20    21    1
    21    21    22    1
    22    21    24    1
    23    24    25   ar
    24    25    26   ar
    25    26    27   ar
    26    27    28   ar
    27    28    29    1
    28    28    30   ar
    29    12    13    2
    30    13    14    1
    31    14    15    2
    32    15    16    1
    33    16    17    2
    34     7     8    1
    35     8     9    2
    36     9    10    1
    37    34    35    1
    38    35    36    1
    39    36    31    1
    40    10     1    1
    41     9     5    1
    42    16    11    1
    43    30    24   ar
    44    18    19    1
    45    22    23    1
@<TRIPOS>MOLECULE
*****
 41 45 0 0 0
SMALL
GASTEIGER

@<TRIPOS>ATOM
      1 C          62.8645   90.0444   12.9500 C.2     1  UNL1        0.0332
      2 C          61.3778   90.1976   13.0757 C.2     1  UNL1        0.0101
      3 C          60.4654   89.4434   12.1543 C.2     1  UNL1        0.0255
      4 C          58.9785   89.5967   12.2801 C.3     1  UNL1        0.0351
      5 C          61.0400   88.5359   11.1073 C.2     1  UNL1        0.2278
      6 N          60.3951   87.6708   10.0654 N.2     1  UNL1       -0.0345
      7 C          61.4833   86.9829    9.2957 C.2     1  UNL1        0.3649
      8 N          62.8009   87.4228    9.8620 N.2     1  UNL1       -0.0380
      9 C          62.5268   88.3826   10.9816 C.2     1  UNL1        0.2184
     10 C          63.4391   89.1369   11.9029 C.3     1  UNL1        0.1186
     11 C          61.2884   86.0234    8.1593 C.3     1  UNL1        0.2250
     12 C          62.3302   84.9844    7.8678 C.2     1  UNL1        0.0436
     13 C          62.1352   84.0250    6.7313 C.2     1  UNL1        0.0288
     14 C          60.8984   84.1046    5.8864 C.2     1  UNL1        0.0896
     15 N          59.8565   85.1436    6.1779 N.am    1  UNL1       -0.1770
     16 C          60.0516   86.1030    7.3143 C.2     1  UNL1        0.2627
     17 O          59.0097   87.1420    7.6058 O.2     1  UNL1       -0.2719
     18 N          63.5671   84.9047    8.7127 N.pl3   1  UNL1       -0.3329
     19 H          64.4461   85.1089    8.3190 H       1  UNL1        0.1466
     20 C          63.4647   84.5141   10.1573 C.3     1  UNL1        0.1211
     21 C          63.8518   83.1309   10.5894 C.3     1  UNL1        0.1522
     22 O          64.8326   82.3383    9.7771 O.3     1  UNL1       -0.3783
     23 H          65.1168   82.8623    9.0119 H       1  UNL1        0.2109
     24 C          63.2580   82.5402   11.8338 C.ar    1  UNL1        0.0067
     25 C          62.8902   81.0865   11.8724 C.ar    1  UNL1       -0.0018
     26 C          62.2964   80.4958   13.1167 C.ar    1  UNL1        0.0006
     27 C          62.0704   81.3588   14.3226 C.ar    1  UNL1        0.0114
     28 C          62.4381   82.8125   14.2840 C.ar    1  UNL1        0.0574
     29 CL         62.2121   83.6755   15.4899 Cl      1  UNL1       -0.0823
     30 C          63.0319   83.4032   13.0396 C.ar    1  UNL1        0.0095
     31 C          65.6016   92.3072   15.7138 C.3     1  UNL1        0.1188
     32 C          65.8429   92.3317   14.2335 C.3     1  UNL1        0.0510
     33 C          64.9306   91.5774   13.3123 C.3     1  UNL1        0.0930
     34 N          63.7769   90.7987   13.8713 N.pl3   1  UNL1       -0.3102
     35 C          63.5356   90.7741   15.3515 C.3     1  UNL1        0.0930
     36 C          64.4480   91.5284   16.2728 C.3     1  UNL1        0.0510
     37 O          66.5140   93.0614   16.6350 O.3     1  UNL1       -0.3535
     38 C          67.8672   93.4987   16.1579 C.3     1  UNL1        0.1740
     39 C          68.8361   92.4872   15.6211 C.3     1  UNL1        0.1742
     40 C          69.1005   91.6015   13.1930 C.3     1  UNL1        0.1742
     41 O          69.3896   92.6407   14.2354 O.3     1  UNL1       -0.3484
@<TRIPOS>BOND
     1    40    41    1
     2    41    39    1
     3    39    38    1
     4    38    37    1
     5    37    31    1
     6    31    32    1
     7    32    33    1
     8    33    34    1
     9    34     1    1
    10     1     2    2
    11     2     3    1
    12     3     4    1
    13     3     5    2
    14     5     6    1
    15     6     7    2
    16     7    11    1
    17    11    12    1
    18    12    18    1
    19    18    20    1
    20    20    21    1
    21    21    22    1
    22    21    24    1
    23    24    25   ar
    24    25    26   ar
    25    26    27   ar
    26    27    28   ar
    27    28    29    1
    28    28    30   ar
    29    12    13    2
    30    13    14    1
    31    14    15    2
    32    15    16    1
    33    16    17    2
    34     7     8    1
    35     8     9    2
    36     9    10    1
    37    34    35    1
    38    35    36    1
    39    36    31    1
    40    10     1    1
    41     9     5    1
    42    16    11    1
    43    30    24   ar
    44    18    19    1
    45    22    23    1
