@<TRIPOS>MOLECULE
*****
 38 42 0 0 0
SMALL
GASTEIGER

@<TRIPOS>ATOM
      1 C          64.0089   90.5528   12.6258 C.ar    1  UNL1        0.0175
      2 C          64.1076   89.1202   13.0594 C.ar    1  UNL1        0.0012
      3 C          63.2381   88.0805   12.4167 C.ar    1  UNL1       -0.0029
      4 C          62.2699   88.4734   11.3405 C.ar    1  UNL1       -0.0085
      5 C          62.1713   89.9059   10.9070 C.ar    1  UNL1       -0.0246
      6 C          63.0407   90.9457   11.5496 C.ar    1  UNL1       -0.0030
      7 C          61.2802   90.5073    9.8607 C.3     1  UNL1        0.0261
      8 C          60.2677   89.8244    8.9896 C.3     1  UNL1        0.0047
      9 C          59.8964   88.3717    8.9497 C.3     1  UNL1        0.0024
     10 C          60.4456   87.2430    9.7709 C.3     1  UNL1        0.0241
     11 C          61.5019   87.2882   10.8349 C.3     1  UNL1        0.0942
     12 C          66.0967   93.8848   13.1634 C.ar    1  UNL1        0.2207
     13 N          66.6175   93.6718   14.5537 N.ar    1  UNL1       -0.2120
     14 C          66.2689   92.4191   15.3015 C.ar    1  UNL1        0.1034
     15 C          65.3993   91.3794   14.6589 C.ar    1  UNL1        0.0399
     16 C          64.8785   91.5924   13.2685 C.ar    1  UNL1        0.0857
     17 N          65.2271   92.8451   12.5207 N.ar    1  UNL1       -0.2135
     18 N          66.4453   95.1375   12.4155 N.pl3   1  UNL1       -0.2801
     19 H          66.6094   95.9747   12.9070 H       1  UNL1        0.1552
     20 C          65.9661   96.4762    7.3303 C.3     1  UNL1        0.1538
     21 N          66.3237   95.7301    8.5816 N.ar    1  UNL1       -0.2460
     22 C          66.0000   96.1536    9.9836 C.ar    1  UNL1        0.1114
     23 C          66.5440   95.1147   10.9189 C.ar    1  UNL1        0.0906
     24 C          67.2038   94.0491   10.0949 C.ar    1  UNL1        0.1363
     25 N          67.0677   94.4294    8.6503 N.ar    1  UNL1       -0.1662
     26 N          61.8342   85.9747   11.4784 N.am    1  UNL1       -0.2949
     27 C          62.6834   84.9760   10.7495 C.2     1  UNL1        0.3015
     28 O          63.2004   85.2908    9.3771 O.2     1  UNL1       -0.2649
     29 H          61.4949   85.7681   12.3792 H       1  UNL1        0.1501
     30 C          63.0157   83.6623   11.3931 C.ar    1  UNL1        0.3038
     31 N          64.3818   83.0519   11.4965 N.ar    1  UNL1       -0.1024
     32 N          64.2506   81.7409   12.2135 N.ar    1  UNL1       -0.1113
     33 C          62.8034   81.5412   12.5533 C.ar    1  UNL1        0.2257
     34 O          62.0401   82.7288   12.0463 O.2     1  UNL1       -0.4162
     35 C          62.2215   80.3612   13.2737 C.3     1  UNL1        0.0704
     36 C          62.7196   79.4532   12.1886 C.3     1  UNL1        0.0093
     37 C          61.7235   81.2692   14.3588 C.3     1  UNL1        0.0093
     38 C          61.6396   79.1811   13.9940 C.3     1  UNL1        0.0093
@<TRIPOS>BOND
     1    20    21    1
     2    21    22   ar
     3    22    23   ar
     4    23    18    1
     5    18    12    1
     6    12    13   ar
     7    13    14   ar
     8    14    15   ar
     9    15    16   ar
    10    16     1    1
    11     1     2   ar
    12     2     3   ar
    13     3     4   ar
    14     4     5   ar
    15     5     6   ar
    16     5     7    1
    17     7     8    1
    18     8     9    1
    19     9    10    1
    20    10    11    1
    21    11    26    1
    22    26    27   am
    23    27    28    2
    24    27    30    1
    25    30    31   ar
    26    31    32   ar
    27    32    33   ar
    28    33    35    1
    29    35    36    1
    30    35    37    1
    31    35    38    1
    32    33    34   ar
    33    16    17   ar
    34    23    24   ar
    35    24    25   ar
    36    25    21   ar
    37    17    12   ar
    38     6     1   ar
    39    34    30   ar
    40    11     4    1
    41    18    19    1
    42    26    29    1
@<TRIPOS>MOLECULE
*****
 38 42 0 0 0
SMALL
GASTEIGER

@<TRIPOS>ATOM
      1 C          64.5237   90.5372   12.9424 C.ar    1  UNL1        0.0175
      2 C          63.7851   90.6219   11.6396 C.ar    1  UNL1        0.0012
      3 C          63.0581   89.4214   11.1101 C.ar    1  UNL1       -0.0029
      4 C          63.0697   88.1362   11.8836 C.ar    1  UNL1       -0.0085
      5 C          63.8082   88.0516   13.1863 C.ar    1  UNL1       -0.0246
      6 C          64.5352   89.2520   13.7158 C.ar    1  UNL1       -0.0030
      7 C          63.9458   86.8767   14.1088 C.3     1  UNL1        0.0261
      8 C          63.3787   85.4964   13.9562 C.3     1  UNL1        0.0047
      9 C          62.5342   84.9501   12.8436 C.3     1  UNL1        0.0024
     10 C          62.0479   85.6490   11.6086 C.3     1  UNL1        0.0241
     11 C          62.2863   87.0670   11.1814 C.3     1  UNL1        0.0942
     12 C          66.0994   94.1732   13.1584 C.ar    1  UNL1        0.2207
     13 N          66.7045   94.1389   14.5304 N.ar    1  UNL1       -0.2120
     14 C          66.5827   92.9040   15.3731 C.ar    1  UNL1        0.1034
     15 C          65.8558   91.7034   14.8438 C.ar    1  UNL1        0.0399
     16 C          65.2506   91.7377   13.4718 C.ar    1  UNL1        0.0857
     17 N          65.3724   92.9726   12.6290 N.ar    1  UNL1       -0.2135
     18 N          66.2211   95.4081   12.3156 N.pl3   1  UNL1       -0.2801
     19 H          66.1315   96.2971   12.7291 H       1  UNL1        0.1552
     20 C          66.2289   96.3715    7.1240 C.3     1  UNL1        0.1538
     21 N          66.4830   95.7315    8.4566 N.ar    1  UNL1       -0.2460
     22 C          65.9938   96.2325    9.7831 C.ar    1  UNL1        0.1114
     23 C          66.4795   95.2886   10.8429 C.ar    1  UNL1        0.0906
     24 C          67.2689   94.2042   10.1713 C.ar    1  UNL1        0.1363
     25 N          67.2711   94.4779    8.6965 N.ar    1  UNL1       -0.1662
     26 N          61.6582   87.4689    9.8799 N.am    1  UNL1       -0.2949
     27 C          60.3020   88.1099    9.8679 C.2     1  UNL1        0.3015
     28 O          59.5741   88.3489   11.1575 O.2     1  UNL1       -0.2649
     29 H          62.1360   87.3120    9.0335 H       1  UNL1        0.1501
     30 C          59.6739   88.5118    8.5663 C.ar    1  UNL1        0.3038
     31 N          58.6228   87.7444    7.8206 N.ar    1  UNL1       -0.1024
     32 N          58.2859   88.5100    6.5754 N.ar    1  UNL1       -0.1113
     33 C          59.1289   89.7504    6.5516 C.ar    1  UNL1        0.2257
     34 O          59.9867   89.7516    7.7821 O.2     1  UNL1       -0.4162
     35 C          59.1162   90.8046    5.4847 C.3     1  UNL1        0.0704
     36 C          57.6193   90.8638    5.5609 C.3     1  UNL1        0.0093
     37 C          60.6131   90.7455    5.4084 C.3     1  UNL1        0.0093
     38 C          59.1036   91.8589    4.4177 C.3     1  UNL1        0.0093
@<TRIPOS>BOND
     1    20    21    1
     2    21    22   ar
     3    22    23   ar
     4    23    18    1
     5    18    12    1
     6    12    13   ar
     7    13    14   ar
     8    14    15   ar
     9    15    16   ar
    10    16     1    1
    11     1     2   ar
    12     2     3   ar
    13     3     4   ar
    14     4     5   ar
    15     5     6   ar
    16     5     7    1
    17     7     8    1
    18     8     9    1
    19     9    10    1
    20    10    11    1
    21    11    26    1
    22    26    27   am
    23    27    28    2
    24    27    30    1
    25    30    31   ar
    26    31    32   ar
    27    32    33   ar
    28    33    35    1
    29    35    36    1
    30    35    37    1
    31    35    38    1
    32    33    34   ar
    33    16    17   ar
    34    23    24   ar
    35    24    25   ar
    36    25    21   ar
    37    17    12   ar
    38     6     1   ar
    39    34    30   ar
    40    11     4    1
    41    18    19    1
    42    26    29    1
@<TRIPOS>MOLECULE
*****
 38 42 0 0 0
SMALL
GASTEIGER

@<TRIPOS>ATOM
      1 C          61.7167   86.7922   10.3805 C.ar    1  UNL1        0.0175
      2 C          62.4192   88.0077   10.9087 C.ar    1  UNL1        0.0012
      3 C          63.1888   87.9300   12.1940 C.ar    1  UNL1       -0.0029
      4 C          63.2558   86.6366   12.9509 C.ar    1  UNL1       -0.0085
      5 C          62.5533   85.4213   12.4226 C.ar    1  UNL1       -0.0246
      6 C          61.7838   85.4990   11.1375 C.ar    1  UNL1       -0.0030
      7 C          62.4929   84.0444   13.0150 C.3     1  UNL1        0.0261
      8 C          63.1202   83.5432   14.2821 C.3     1  UNL1        0.0047
      9 C          63.9626   84.2949   15.2695 C.3     1  UNL1        0.0024
     10 C          64.3860   85.7334   15.2340 C.3     1  UNL1        0.0241
     11 C          64.0715   86.7756   14.2021 C.3     1  UNL1        0.0942
     12 C          59.3397   88.1553    7.5096 C.ar    1  UNL1        0.2207
     13 N          59.4080   87.0260    6.5249 N.ar    1  UNL1       -0.2120
     14 C          60.2459   85.8186    6.8254 C.ar    1  UNL1        0.1034
     15 C          61.0155   85.7407    8.1106 C.ar    1  UNL1        0.0399
     16 C          60.9472   86.8701    9.0953 C.ar    1  UNL1        0.0857
     17 N          60.1093   88.0774    8.7948 N.ar    1  UNL1       -0.2135
     18 N          58.5018   89.3627    7.2092 N.pl3   1  UNL1       -0.2801
     19 H          57.6947   89.5467    7.7420 H       1  UNL1        0.1552
     20 C          61.3681   91.9926    3.6385 C.3     1  UNL1        0.1538
     21 N          60.2113   91.4985    4.4557 N.ar    1  UNL1       -0.2460
     22 C          60.2799   90.4824    5.5570 C.ar    1  UNL1        0.1114
     23 C          58.8938   90.2897    6.0969 C.ar    1  UNL1        0.0906
     24 C          57.9685   91.1867    5.3293 C.ar    1  UNL1        0.1363
     25 N          58.7827   91.9338    4.3149 N.ar    1  UNL1       -0.1662
     26 N          64.6489   88.1367   14.4547 N.am    1  UNL1       -0.2949
     27 C          63.9469   89.0901   15.3758 C.2     1  UNL1        0.3015
     28 O          62.6674   88.6823   16.0442 O.2     1  UNL1       -0.2649
     29 H          65.4886   88.4044   14.0160 H       1  UNL1        0.1501
     30 C          64.5244   90.4513   15.6284 C.ar    1  UNL1        0.3038
     31 N          63.8314   91.5888   16.3181 N.ar    1  UNL1       -0.1024
     32 N          64.7749   92.7544   16.3516 N.ar    1  UNL1       -0.1113
     33 C          66.0510   92.3373   15.6827 C.ar    1  UNL1        0.2257
     34 O          65.8962   90.9139   15.2357 O.2     1  UNL1       -0.4162
     35 C          67.2682   93.1933   15.4939 C.3     1  UNL1        0.0704
     36 C          67.9397   92.4903   16.6362 C.3     1  UNL1        0.0093
     37 C          66.5967   93.8962   14.3515 C.3     1  UNL1        0.0093
     38 C          68.4854   94.0492   15.3051 C.3     1  UNL1        0.0093
@<TRIPOS>BOND
     1    20    21    1
     2    21    22   ar
     3    22    23   ar
     4    23    18    1
     5    18    12    1
     6    12    13   ar
     7    13    14   ar
     8    14    15   ar
     9    15    16   ar
    10    16     1    1
    11     1     2   ar
    12     2     3   ar
    13     3     4   ar
    14     4     5   ar
    15     5     6   ar
    16     5     7    1
    17     7     8    1
    18     8     9    1
    19     9    10    1
    20    10    11    1
    21    11    26    1
    22    26    27   am
    23    27    28    2
    24    27    30    1
    25    30    31   ar
    26    31    32   ar
    27    32    33   ar
    28    33    35    1
    29    35    36    1
    30    35    37    1
    31    35    38    1
    32    33    34   ar
    33    16    17   ar
    34    23    24   ar
    35    24    25   ar
    36    25    21   ar
    37    17    12   ar
    38     6     1   ar
    39    34    30   ar
    40    11     4    1
    41    18    19    1
    42    26    29    1
@<TRIPOS>MOLECULE
*****
 38 42 0 0 0
SMALL
GASTEIGER

@<TRIPOS>ATOM
      1 C          63.5348   90.6180   12.0663 C.ar    1  UNL1        0.0175
      2 C          63.1167   91.3097   10.8026 C.ar    1  UNL1        0.0012
      3 C          62.3163   90.5697    9.7721 C.ar    1  UNL1       -0.0029
      4 C          61.9340   89.1380   10.0054 C.ar    1  UNL1       -0.0085
      5 C          62.3521   88.4465   11.2690 C.ar    1  UNL1       -0.0246
      6 C          63.1525   89.1864   12.2994 C.ar    1  UNL1       -0.0030
      7 C          62.0790   87.0350   11.6971 C.3     1  UNL1        0.0261
      8 C          61.3202   85.9665   10.9671 C.3     1  UNL1        0.0047
      9 C          60.6473   86.0457    9.6289 C.3     1  UNL1        0.0024
     10 C          60.5668   87.2128    8.6901 C.3     1  UNL1        0.0241
     11 C          61.1395   88.5890    8.8576 C.3     1  UNL1        0.0942
     12 C          65.9491   93.2936   13.7283 C.ar    1  UNL1        0.2207
     13 N          65.9360   92.8382   15.1573 N.ar    1  UNL1       -0.2120
     14 C          65.1225   91.6427   15.5561 C.ar    1  UNL1        0.1034
     15 C          64.3221   90.9026   14.5257 C.ar    1  UNL1        0.0399
     16 C          64.3352   91.3580   13.0967 C.ar    1  UNL1        0.0857
     17 N          65.1487   92.5535   12.6979 N.ar    1  UNL1       -0.2135
     18 N          66.7626   94.4891   13.3295 N.pl3   1  UNL1       -0.2801
     19 H          67.4069   94.8797   13.9631 H       1  UNL1        0.1552
     20 C          66.9595   95.2149    8.1030 C.3     1  UNL1        0.1538
     21 N          66.6848   95.4231    9.5629 N.ar    1  UNL1       -0.2460
     22 C          67.0609   94.4872   10.6732 C.ar    1  UNL1        0.1114
     23 C          66.5943   95.0896   11.9652 C.ar    1  UNL1        0.0906
     24 C          65.9299   96.3978   11.6535 C.ar    1  UNL1        0.1363
     25 N          65.9858   96.6040   10.1688 N.ar    1  UNL1       -0.1662
     26 N          60.8838   89.5423    7.7281 N.am    1  UNL1       -0.2949
     27 C          59.6017   89.4609    6.9536 C.2     1  UNL1        0.3015
     28 O          58.5754   88.4262    7.3087 O.2     1  UNL1       -0.2649
     29 H          61.5574   90.2214    7.4950 H       1  UNL1        0.1501
     30 C          59.3461   90.4142    5.8240 C.ar    1  UNL1        0.3038
     31 N          58.0185   91.0052    5.4526 N.ar    1  UNL1       -0.1024
     32 N          58.2250   91.9001    4.2666 N.ar    1  UNL1       -0.1113
     33 C          59.6802   91.8622    3.9052 C.ar    1  UNL1        0.2257
     34 O          60.3732   90.9439    4.8677 O.2     1  UNL1       -0.4162
     35 C          60.3288   92.6111    2.7789 C.3     1  UNL1        0.0704
     36 C          61.6793   92.3211    3.3637 C.3     1  UNL1        0.0093
     37 C          58.9783   92.9012    2.1941 C.3     1  UNL1        0.0093
     38 C          60.9774   93.3601    1.6526 C.3     1  UNL1        0.0093
@<TRIPOS>BOND
     1    20    21    1
     2    21    22   ar
     3    22    23   ar
     4    23    18    1
     5    18    12    1
     6    12    13   ar
     7    13    14   ar
     8    14    15   ar
     9    15    16   ar
    10    16     1    1
    11     1     2   ar
    12     2     3   ar
    13     3     4   ar
    14     4     5   ar
    15     5     6   ar
    16     5     7    1
    17     7     8    1
    18     8     9    1
    19     9    10    1
    20    10    11    1
    21    11    26    1
    22    26    27   am
    23    27    28    2
    24    27    30    1
    25    30    31   ar
    26    31    32   ar
    27    32    33   ar
    28    33    35    1
    29    35    36    1
    30    35    37    1
    31    35    38    1
    32    33    34   ar
    33    16    17   ar
    34    23    24   ar
    35    24    25   ar
    36    25    21   ar
    37    17    12   ar
    38     6     1   ar
    39    34    30   ar
    40    11     4    1
    41    18    19    1
    42    26    29    1
