@<TRIPOS>MOLECULE
*****
 16 17 0 0 0
SMALL
GASTEIGER

@<TRIPOS>ATOM
      1 C          63.6666   83.7760   10.7702 C.ar    1  UNL1        0.1385
      2 C          62.7010   84.5190   11.6450 C.ar    1  UNL1        0.0369
      3 C          61.8129   85.5739   11.0548 C.ar    1  UNL1        0.0029
      4 C          61.8904   85.8858    9.5896 C.ar    1  UNL1       -0.0018
      5 C          62.8561   85.1428    8.7148 C.ar    1  UNL1        0.0029
      6 C          63.7442   84.0879    9.3051 C.ar    1  UNL1        0.0369
      7 C          61.0023   86.9408    8.9994 C.2     1  UNL1        0.0036
      8 C          59.9676   86.7275    7.9345 C.2     1  UNL1        0.0179
      9 C          59.3188   88.0491    7.6473 C.2     1  UNL1        0.0933
     10 N          59.9526   89.0792    8.5347 N.2     1  UNL1       -0.2641
     11 C          60.9930   88.3941    9.3702 C.3     1  UNL1        0.1519
     12 O          64.5547   82.7211   11.3605 O.3     1  UNL1       -0.4755
     13 C          64.0611   81.8746   12.4961 C.3     1  UNL1        0.2054
     14 C          62.9761   80.8654   12.2630 C.3     1  UNL1        0.0473
     15 C          61.1911   81.1115   14.1347 C.3     1  UNL1        0.0001
     16 C          62.2260   80.2882   13.4267 C.3     1  UNL1        0.0038
@<TRIPOS>BOND
     1    15    16    1
     2    16    14    1
     3    14    13    1
     4    13    12    1
     5    12     1    1
     6     1     2   ar
     7     2     3   ar
     8     3     4   ar
     9     4     7    1
    10     7     8    2
    11     8     9    1
    12     9    10    2
    13    10    11    1
    14     4     5   ar
    15     5     6   ar
    16     6     1   ar
    17    11     7    1
@<TRIPOS>MOLECULE
*****
 16 17 0 0 0
SMALL
GASTEIGER

@<TRIPOS>ATOM
      1 C          66.1862   93.1160   12.5272 C.ar    1  UNL1        0.1385
      2 C          65.0391   92.3300   11.9647 C.ar    1  UNL1        0.0369
      3 C          64.4063   91.2401   12.7781 C.ar    1  UNL1        0.0029
      4 C          64.9206   90.9361   14.1540 C.ar    1  UNL1       -0.0018
      5 C          66.0678   91.7220   14.7164 C.ar    1  UNL1        0.0029
      6 C          66.7006   92.8120   13.9030 C.ar    1  UNL1        0.0369
      7 C          64.2878   89.8462   14.9674 C.2     1  UNL1        0.0036
      8 C          63.4925   90.0333   16.2254 C.2     1  UNL1        0.0179
      9 C          63.0524   88.6806   16.7011 C.2     1  UNL1        0.0933
     10 N          63.5757   87.6573   15.7372 N.2     1  UNL1       -0.2641
     11 C          64.3392   88.3778   14.6657 C.3     1  UNL1        0.1519
     12 O          66.8190   94.2059   11.7138 O.3     1  UNL1       -0.4755
     13 C          66.4748   94.3539   10.2613 C.3     1  UNL1        0.2054
     14 C          67.5666   94.4223    9.2350 C.3     1  UNL1        0.0473
     15 C          68.1983   91.9532    9.7394 C.3     1  UNL1        0.0001
     16 C          68.4533   93.2348    9.0030 C.3     1  UNL1        0.0038
@<TRIPOS>BOND
     1    15    16    1
     2    16    14    1
     3    14    13    1
     4    13    12    1
     5    12     1    1
     6     1     2   ar
     7     2     3   ar
     8     3     4   ar
     9     4     7    1
    10     7     8    2
    11     8     9    1
    12     9    10    2
    13    10    11    1
    14     4     5   ar
    15     5     6   ar
    16     6     1   ar
    17    11     7    1
@<TRIPOS>MOLECULE
*****
 16 17 0 0 0
SMALL
GASTEIGER

@<TRIPOS>ATOM
      1 C          63.1056   89.7656   12.6602 C.ar    1  UNL1        0.1385
      2 C          63.6009   91.0243   12.0120 C.ar    1  UNL1        0.0369
      3 C          64.7682   91.7611   12.5991 C.ar    1  UNL1        0.0029
      4 C          65.4402   91.2390   13.8344 C.ar    1  UNL1       -0.0018
      5 C          64.9449   89.9803   14.4825 C.ar    1  UNL1        0.0029
      6 C          63.7776   89.2435   13.8954 C.ar    1  UNL1        0.0369
      7 C          66.6074   91.9758   14.4215 C.2     1  UNL1        0.0036
      8 C          66.6069   92.7462   15.7085 C.2     1  UNL1        0.0179
      9 C          67.9793   93.3180   15.9071 C.2     1  UNL1        0.0933
     10 N          68.8281   92.9010   14.7428 N.2     1  UNL1       -0.2641
     11 C          67.9803   92.0715   13.8247 C.3     1  UNL1        0.1519
     12 O          61.9384   89.0288   12.0731 O.3     1  UNL1       -0.4755
     13 C          62.1132   88.2235   10.8198 C.3     1  UNL1        0.2054
     14 C          62.0045   86.7282   10.8678 C.3     1  UNL1        0.0473
     15 C          62.7371   85.6790    8.6066 C.3     1  UNL1        0.0001
     16 C          61.6706   85.9602    9.6233 C.3     1  UNL1        0.0038
@<TRIPOS>BOND
     1    15    16    1
     2    16    14    1
     3    14    13    1
     4    13    12    1
     5    12     1    1
     6     1     2   ar
     7     2     3   ar
     8     3     4   ar
     9     4     7    1
    10     7     8    2
    11     8     9    1
    12     9    10    2
    13    10    11    1
    14     4     5   ar
    15     5     6   ar
    16     6     1   ar
    17    11     7    1
@<TRIPOS>MOLECULE
*****
 16 17 0 0 0
SMALL
GASTEIGER

@<TRIPOS>ATOM
      1 C          63.9170   90.9540   12.4275 C.ar    1  UNL1        0.1385
      2 C          63.5614   89.5742   12.8960 C.ar    1  UNL1        0.0369
      3 C          62.8190   88.6412   11.9859 C.ar    1  UNL1        0.0029
      4 C          62.4323   89.0880   10.6072 C.ar    1  UNL1       -0.0018
      5 C          62.7879   90.4679   10.1387 C.ar    1  UNL1        0.0029
      6 C          63.5303   91.4009   11.0489 C.ar    1  UNL1        0.0369
      7 C          61.6899   88.1550    9.6971 C.2     1  UNL1        0.0036
      8 C          62.0914   86.7505    9.3562 C.2     1  UNL1        0.0179
      9 C          61.0653   86.1902    8.4165 C.2     1  UNL1        0.0933
     10 N          60.0297   87.2484    8.1764 N.2     1  UNL1       -0.2641
     11 C          60.4157   88.4627    8.9679 C.3     1  UNL1        0.1519
     12 O          64.6594   91.8870   13.3377 O.3     1  UNL1       -0.4755
     13 C          65.9279   92.5380   12.8718 C.3     1  UNL1        0.2054
     14 C          67.2366   92.1696   13.5055 C.3     1  UNL1        0.0473
     15 C          68.0315   92.2642   15.9772 C.3     1  UNL1        0.0001
     16 C          67.2626   91.5814   14.8852 C.3     1  UNL1        0.0038
@<TRIPOS>BOND
     1    15    16    1
     2    16    14    1
     3    14    13    1
     4    13    12    1
     5    12     1    1
     6     1     2   ar
     7     2     3   ar
     8     3     4   ar
     9     4     7    1
    10     7     8    2
    11     8     9    1
    12     9    10    2
    13    10    11    1
    14     4     5   ar
    15     5     6   ar
    16     6     1   ar
    17    11     7    1
@<TRIPOS>MOLECULE
*****
 16 17 0 0 0
SMALL
GASTEIGER

@<TRIPOS>ATOM
      1 C          63.9470   91.0747   12.2719 C.ar    1  UNL1        0.1385
      2 C          63.6186   89.7126   12.8075 C.ar    1  UNL1        0.0369
      3 C          62.8599   88.7360   11.9587 C.ar    1  UNL1        0.0029
      4 C          62.4296   89.1213   10.5744 C.ar    1  UNL1       -0.0018
      5 C          62.7580   90.4834   10.0389 C.ar    1  UNL1        0.0029
      6 C          63.5168   91.4601   10.8877 C.ar    1  UNL1        0.0369
      7 C          61.6709   88.1446    9.7257 C.2     1  UNL1        0.0036
      8 C          60.3570   88.3997    9.0484 C.2     1  UNL1        0.0179
      9 C          59.9669   87.1541    8.3093 C.2     1  UNL1        0.0933
     10 N          61.0397   86.1291    8.5298 N.2     1  UNL1       -0.2641
     11 C          62.0927   86.7413    9.4052 C.3     1  UNL1        0.1519
     12 O          64.7058   92.0514   13.1207 O.3     1  UNL1       -0.4755
     13 C          65.6842   92.9947   12.4860 C.3     1  UNL1        0.2054
     14 C          66.9177   92.4602   11.8206 C.3     1  UNL1        0.0473
     15 C          68.3748   92.2780    9.6773 C.3     1  UNL1        0.0001
     16 C          67.0408   92.5001   10.3261 C.3     1  UNL1        0.0038
@<TRIPOS>BOND
     1    15    16    1
     2    16    14    1
     3    14    13    1
     4    13    12    1
     5    12     1    1
     6     1     2   ar
     7     2     3   ar
     8     3     4   ar
     9     4     7    1
    10     7     8    2
    11     8     9    1
    12     9    10    2
    13    10    11    1
    14     4     5   ar
    15     5     6   ar
    16     6     1   ar
    17    11     7    1
@<TRIPOS>MOLECULE
*****
 16 17 0 0 0
SMALL
GASTEIGER

@<TRIPOS>ATOM
      1 C          62.5380   90.0361   11.7340 C.ar    1  UNL1        0.1385
      2 C          62.6162   90.6067   10.3490 C.ar    1  UNL1        0.0369
      3 C          63.6818   91.6059   10.0085 C.ar    1  UNL1        0.0029
      4 C          64.6694   92.0345   11.0530 C.ar    1  UNL1       -0.0018
      5 C          64.5913   91.4639   12.4380 C.ar    1  UNL1        0.0029
      6 C          63.5256   90.4647   12.7785 C.ar    1  UNL1        0.0369
      7 C          65.7351   93.0337   10.7125 C.2     1  UNL1        0.0036
      8 C          65.5940   94.5261   10.7662 C.2     1  UNL1        0.0179
      9 C          66.9006   95.1307   10.3454 C.2     1  UNL1        0.0933
     10 N          67.8493   94.0120   10.0316 N.2     1  UNL1       -0.2641
     11 C          67.1289   92.7160   10.2584 C.3     1  UNL1        0.1519
     12 O          61.4724   89.0369   12.0744 O.3     1  UNL1       -0.4755
     13 C          60.9870   88.0735   11.0323 C.3     1  UNL1        0.2054
     14 C          61.8932   86.9861   10.5360 C.3     1  UNL1        0.0473
     15 C          62.8234   85.5624    8.5718 C.3     1  UNL1        0.0001
     16 C          61.8289   86.5526    9.1014 C.3     1  UNL1        0.0038
@<TRIPOS>BOND
     1    15    16    1
     2    16    14    1
     3    14    13    1
     4    13    12    1
     5    12     1    1
     6     1     2   ar
     7     2     3   ar
     8     3     4   ar
     9     4     7    1
    10     7     8    2
    11     8     9    1
    12     9    10    2
    13    10    11    1
    14     4     5   ar
    15     5     6   ar
    16     6     1   ar
    17    11     7    1
@<TRIPOS>MOLECULE
*****
 16 17 0 0 0
SMALL
GASTEIGER

@<TRIPOS>ATOM
      1 C          63.3729   84.1477   11.3044 C.ar    1  UNL1        0.1385
      2 C          63.5683   84.3112    9.8262 C.ar    1  UNL1        0.0369
      3 C          62.7206   85.2835    9.0606 C.ar    1  UNL1        0.0029
      4 C          61.6775   86.0922    9.7732 C.ar    1  UNL1       -0.0018
      5 C          61.4821   85.9287   11.2514 C.ar    1  UNL1        0.0029
      6 C          62.3298   84.9564   12.0170 C.ar    1  UNL1        0.0369
      7 C          60.8299   87.0645    9.0076 C.2     1  UNL1        0.0036
      8 C          59.7940   86.7134    7.9811 C.2     1  UNL1        0.0179
      9 C          59.1932   87.9905    7.4732 C.2     1  UNL1        0.0933
     10 N          59.8577   89.1310    8.1858 N.2     1  UNL1       -0.2641
     11 C          60.8692   88.5587    9.1341 C.3     1  UNL1        0.1519
     12 O          64.2205   83.1754   12.0700 O.3     1  UNL1       -0.4755
     13 C          63.8467   82.7967   13.4724 C.3     1  UNL1        0.2054
     14 C          64.4268   83.5501   14.6326 C.3     1  UNL1        0.0473
     15 C          64.4313   86.1364   14.8797 C.3     1  UNL1        0.0001
     16 C          65.0930   84.8753   14.4087 C.3     1  UNL1        0.0038
@<TRIPOS>BOND
     1    15    16    1
     2    16    14    1
     3    14    13    1
     4    13    12    1
     5    12     1    1
     6     1     2   ar
     7     2     3   ar
     8     3     4   ar
     9     4     7    1
    10     7     8    2
    11     8     9    1
    12     9    10    2
    13    10    11    1
    14     4     5   ar
    15     5     6   ar
    16     6     1   ar
    17    11     7    1
@<TRIPOS>MOLECULE
*****
 16 17 0 0 0
SMALL
GASTEIGER

@<TRIPOS>ATOM
      1 C          61.8174   89.3903   11.5155 C.ar    1  UNL1        0.1385
      2 C          62.0026   90.2732   10.3171 C.ar    1  UNL1        0.0369
      3 C          63.1004   91.2952   10.3010 C.ar    1  UNL1        0.0029
      4 C          64.0131   91.4343   11.4832 C.ar    1  UNL1       -0.0018
      5 C          63.8279   90.5514   12.6815 C.ar    1  UNL1        0.0029
      6 C          62.7300   89.5294   12.6977 C.ar    1  UNL1        0.0369
      7 C          65.1109   92.4562   11.4670 C.2     1  UNL1        0.0036
      8 C          65.5394   93.2713   10.2829 C.2     1  UNL1        0.0179
      9 C          66.6664   94.1614   10.7162 C.2     1  UNL1        0.0933
     10 N          66.9344   93.8965   12.1680 N.2     1  UNL1       -0.2641
     11 C          65.9731   92.8426   12.6321 C.3     1  UNL1        0.1519
     12 O          60.7195   88.3683   11.5317 O.3     1  UNL1       -0.4755
     13 C          60.7775   87.1905   10.6047 C.3     1  UNL1        0.2054
     14 C          61.9755   86.9864    9.7254 C.3     1  UNL1        0.0473
     15 C          63.0549   85.2331    8.1408 C.3     1  UNL1        0.0001
     16 C          62.5029   85.6028    9.4856 C.3     1  UNL1        0.0038
@<TRIPOS>BOND
     1    15    16    1
     2    16    14    1
     3    14    13    1
     4    13    12    1
     5    12     1    1
     6     1     2   ar
     7     2     3   ar
     8     3     4   ar
     9     4     7    1
    10     7     8    2
    11     8     9    1
    12     9    10    2
    13    10    11    1
    14     4     5   ar
    15     5     6   ar
    16     6     1   ar
    17    11     7    1
@<TRIPOS>MOLECULE
*****
 16 17 0 0 0
SMALL
GASTEIGER

@<TRIPOS>ATOM
      1 C          63.7177   90.0993   15.8287 C.ar    1  UNL1        0.1385
      2 C          63.1368   89.1921   16.8725 C.ar    1  UNL1        0.0369
      3 C          63.1603   87.7058   16.6714 C.ar    1  UNL1        0.0029
      4 C          63.7646   87.1267   15.4267 C.ar    1  UNL1       -0.0018
      5 C          64.3455   88.0340   14.3829 C.ar    1  UNL1        0.0029
      6 C          64.3220   89.5203   14.5840 C.ar    1  UNL1        0.0369
      7 C          63.7880   85.6404   15.2257 C.2     1  UNL1        0.0036
      8 C          62.7448   84.6706   15.6958 C.2     1  UNL1        0.0179
      9 C          63.1708   83.2938   15.2799 C.2     1  UNL1        0.0933
     10 N          64.4773   83.4127   14.5527 N.2     1  UNL1       -0.2641
     11 C          64.8587   84.8630   14.5192 C.3     1  UNL1        0.1519
     12 O          63.6943   91.5856   16.0297 O.3     1  UNL1       -0.4755
     13 C          64.9231   92.2963   16.5143 C.3     1  UNL1        0.2054
     14 C          66.1049   92.4563   15.6044 C.3     1  UNL1        0.0473
     15 C          68.6620   92.8206   15.3247 C.3     1  UNL1        0.0001
     16 C          67.4182   92.9260   16.1564 C.3     1  UNL1        0.0038
@<TRIPOS>BOND
     1    15    16    1
     2    16    14    1
     3    14    13    1
     4    13    12    1
     5    12     1    1
     6     1     2   ar
     7     2     3   ar
     8     3     4   ar
     9     4     7    1
    10     7     8    2
    11     8     9    1
    12     9    10    2
    13    10    11    1
    14     4     5   ar
    15     5     6   ar
    16     6     1   ar
    17    11     7    1
