@<TRIPOS>MOLECULE
*****
 24 27 0 0 0
SMALL
GASTEIGER

@<TRIPOS>ATOM
      1 O          64.8283   84.1214   15.4229 O.3     1  UNL1       -0.3785
      2 C          64.0972   84.8201   14.3150 C.3     1  UNL1        0.1271
      3 C          64.7076   86.0569   14.9045 C.3     1  UNL1        0.0401
      4 C          64.2582   87.2309   14.0862 C.3     1  UNL1        0.0292
      5 C          63.3700   86.7197   12.9908 C.ar    1  UNL1       -0.0236
      6 C          62.6390   87.4184   11.8829 C.ar    1  UNL1       -0.0045
      7 C          61.8085   86.6271   10.9165 C.ar    1  UNL1       -0.0003
      8 C          61.7090   85.1371   11.0579 C.ar    1  UNL1       -0.0003
      9 C          62.4400   84.4384   12.1658 C.ar    1  UNL1       -0.0020
     10 C          63.2705   85.2297   13.1323 C.ar    1  UNL1        0.0017
     11 H          65.3132   84.7738   15.9522 H       1  UNL1        0.2111
     12 C          61.0775   87.3257    9.8086 C.ar    1  UNL1        0.0001
     13 C          61.0567   88.8245    9.7520 C.ar    1  UNL1        0.0023
     14 C          60.3257   89.5232    8.6442 C.ar    1  UNL1        0.0296
     15 C          59.6154   88.7231    7.5927 C.ar    1  UNL1        0.1401
     16 F          58.8844   89.4218    6.4849 F       1  UNL1       -0.2042
     17 C          59.6362   87.2243    7.6492 C.ar    1  UNL1        0.0296
     18 C          60.3673   86.5256    8.7572 C.ar    1  UNL1        0.0023
     19 C          63.6396   83.4372   13.9571 C.ar    1  UNL1        0.0247
     20 C          62.4323   82.8500   14.6262 C.ar    1  UNL1        0.0014
     21 C          61.9748   81.4670   14.2682 C.ar    1  UNL1        0.0204
     22 C          62.7244   80.6713   13.2412 C.ar    1  UNL1        0.0989
     23 N          63.9317   81.2585   12.5720 N.ar    1  UNL1       -0.2426
     24 C          64.3893   82.6414   12.9300 C.ar    1  UNL1        0.0971
@<TRIPOS>BOND
     1     1     2    1
     2     2    19    1
     3    19    20   ar
     4    20    21   ar
     5    21    22   ar
     6    22    23   ar
     7    23    24   ar
     8     2     3    1
     9     3     4    1
    10     4     5    1
    11     5     6   ar
    12     6     7   ar
    13     7    12    1
    14    12    13   ar
    15    13    14   ar
    16    14    15   ar
    17    15    16    1
    18    15    17   ar
    19    17    18   ar
    20     7     8   ar
    21     8     9   ar
    22     9    10   ar
    23    10     2    1
    24    24    19   ar
    25    10     5   ar
    26    18    12   ar
    27     1    11    1
@<TRIPOS>MOLECULE
*****
 24 27 0 0 0
SMALL
GASTEIGER

@<TRIPOS>ATOM
      1 O          64.9086   82.5063   13.4890 O.3     1  UNL1       -0.3785
      2 C          64.1181   83.3812   12.5617 C.3     1  UNL1        0.1271
      3 C          64.6202   82.4443   11.5034 C.3     1  UNL1        0.0401
      4 C          64.0696   82.8978   10.1839 C.3     1  UNL1        0.0292
      5 C          63.2272   84.1150   10.4267 C.ar    1  UNL1       -0.0236
      6 C          62.4368   84.9898    9.4994 C.ar    1  UNL1       -0.0045
      7 C          61.6763   86.1634   10.0418 C.ar    1  UNL1       -0.0003
      8 C          61.7063   86.4622   11.5115 C.ar    1  UNL1       -0.0003
      9 C          62.4967   85.5874   12.4387 C.ar    1  UNL1       -0.0020
     10 C          63.2572   84.4138   11.8963 C.ar    1  UNL1        0.0017
     11 H          65.3361   81.7995   12.9806 H       1  UNL1        0.2111
     12 C          60.8858   87.0383    9.1146 C.ar    1  UNL1        0.0001
     13 C          60.0599   86.4225    8.0243 C.ar    1  UNL1        0.0023
     14 C          59.2695   87.2973    7.0971 C.ar    1  UNL1        0.0296
     15 C          59.3048   88.7881    7.2601 C.ar    1  UNL1        0.1401
     16 F          58.5143   89.6629    6.3329 F       1  UNL1       -0.2042
     17 C          60.1307   89.4039    8.3504 C.ar    1  UNL1        0.0296
     18 C          60.9212   88.5290    9.2776 C.ar    1  UNL1        0.0023
     19 C          63.7813   84.1353   13.8139 C.ar    1  UNL1        0.0247
     20 C          64.6938   85.2199   14.3047 C.ar    1  UNL1        0.0014
     21 C          64.3569   85.9740   15.5570 C.ar    1  UNL1        0.0204
     22 C          63.1076   85.6433   16.3184 C.ar    1  UNL1        0.0989
     23 N          62.1951   84.5586   15.8276 N.ar    1  UNL1       -0.2426
     24 C          62.5319   83.8046   14.5754 C.ar    1  UNL1        0.0971
@<TRIPOS>BOND
     1     1     2    1
     2     2    19    1
     3    19    20   ar
     4    20    21   ar
     5    21    22   ar
     6    22    23   ar
     7    23    24   ar
     8     2     3    1
     9     3     4    1
    10     4     5    1
    11     5     6   ar
    12     6     7   ar
    13     7    12    1
    14    12    13   ar
    15    13    14   ar
    16    14    15   ar
    17    15    16    1
    18    15    17   ar
    19    17    18   ar
    20     7     8   ar
    21     8     9   ar
    22     9    10   ar
    23    10     2    1
    24    24    19   ar
    25    10     5   ar
    26    18    12   ar
    27     1    11    1
@<TRIPOS>MOLECULE
*****
 24 27 0 0 0
SMALL
GASTEIGER

@<TRIPOS>ATOM
      1 O          67.2253   93.4465   13.8564 O.3     1  UNL1       -0.3785
      2 C          66.1642   92.5858   13.2371 C.3     1  UNL1        0.1271
      3 C          66.0499   92.0076   14.6164 C.3     1  UNL1        0.0401
      4 C          64.9885   90.9481   14.5882 C.3     1  UNL1        0.0292
      5 C          64.4468   90.8715   13.1915 C.ar    1  UNL1       -0.0236
      6 C          63.3858   90.0108   12.5723 C.ar    1  UNL1       -0.0045
      7 C          63.0515   90.1624   11.1179 C.ar    1  UNL1       -0.0003
      8 C          63.7782   91.1746   10.2828 C.ar    1  UNL1       -0.0003
      9 C          64.8392   92.0353   10.9021 C.ar    1  UNL1       -0.0020
     10 C          65.1735   91.8837   12.3565 C.ar    1  UNL1        0.0017
     11 H          67.3158   93.2223   14.7958 H       1  UNL1        0.2111
     12 C          61.9905   89.3017   10.4986 C.ar    1  UNL1        0.0001
     13 C          61.0522   89.8825    9.4825 C.ar    1  UNL1        0.0023
     14 C          59.9912   89.0219    8.8631 C.ar    1  UNL1        0.0296
     15 C          59.8684   87.5805    9.2599 C.ar    1  UNL1        0.1401
     16 F          58.8074   86.7199    8.6405 F       1  UNL1       -0.2042
     17 C          60.8067   86.9997   10.2759 C.ar    1  UNL1        0.0296
     18 C          61.8677   87.8604   10.8953 C.ar    1  UNL1        0.0023
     19 C          66.5004   93.3440   11.9872 C.ar    1  UNL1        0.0247
     20 C          67.3002   92.6852   10.9026 C.ar    1  UNL1        0.0014
     21 C          67.6364   93.4435    9.6527 C.ar    1  UNL1        0.0204
     22 C          67.1727   94.8604    9.4875 C.ar    1  UNL1        0.0989
     23 N          66.3730   95.5192   10.5721 N.ar    1  UNL1       -0.2426
     24 C          66.0368   94.7610   11.8220 C.ar    1  UNL1        0.0971
@<TRIPOS>BOND
     1     1     2    1
     2     2    19    1
     3    19    20   ar
     4    20    21   ar
     5    21    22   ar
     6    22    23   ar
     7    23    24   ar
     8     2     3    1
     9     3     4    1
    10     4     5    1
    11     5     6   ar
    12     6     7   ar
    13     7    12    1
    14    12    13   ar
    15    13    14   ar
    16    14    15   ar
    17    15    16    1
    18    15    17   ar
    19    17    18   ar
    20     7     8   ar
    21     8     9   ar
    22     9    10   ar
    23    10     2    1
    24    24    19   ar
    25    10     5   ar
    26    18    12   ar
    27     1    11    1
@<TRIPOS>MOLECULE
*****
 24 27 0 0 0
SMALL
GASTEIGER

@<TRIPOS>ATOM
      1 O          63.4806   90.8759   13.4938 O.3     1  UNL1       -0.3785
      2 C          63.4154   89.3916   13.2869 C.3     1  UNL1        0.1271
      3 C          64.2735   89.3411   14.5162 C.3     1  UNL1        0.0401
      4 C          64.5621   87.9010   14.8211 C.3     1  UNL1        0.0292
      5 C          63.8824   87.0616   13.7803 C.ar    1  UNL1       -0.0236
      6 C          63.8172   85.5773   13.5735 C.ar    1  UNL1       -0.0045
      7 C          63.0433   85.0144   12.4184 C.ar    1  UNL1       -0.0003
      8 C          62.3346   85.9356   11.4703 C.ar    1  UNL1       -0.0003
      9 C          62.3998   87.4198   11.6771 C.ar    1  UNL1       -0.0020
     10 C          63.1737   87.9828   12.8321 C.ar    1  UNL1        0.0017
     11 H          64.0166   91.0697   14.2788 H       1  UNL1        0.2111
     12 C          62.9781   83.5301   12.2115 C.ar    1  UNL1        0.0001
     13 C          62.4100   82.6477   13.2833 C.ar    1  UNL1        0.0023
     14 C          62.3448   81.1635   13.0765 C.ar    1  UNL1        0.0296
     15 C          62.8477   80.5616   11.7978 C.ar    1  UNL1        0.1401
     16 F          62.7825   79.0774   11.5910 F       1  UNL1       -0.2042
     17 C          63.4159   81.4440   10.7261 C.ar    1  UNL1        0.0296
     18 C          63.4811   82.9283   10.9330 C.ar    1  UNL1        0.0023
     19 C          62.5710   89.7524   12.1009 C.ar    1  UNL1        0.0247
     20 C          63.2221   90.1229   10.8014 C.ar    1  UNL1        0.0014
     21 C          62.3776   90.4837    9.6153 C.ar    1  UNL1        0.0204
     22 C          60.8819   90.4741    9.7289 C.ar    1  UNL1        0.0989
     23 N          60.2307   90.1037   11.0284 N.ar    1  UNL1       -0.2426
     24 C          61.0752   89.7428   12.2144 C.ar    1  UNL1        0.0971
@<TRIPOS>BOND
     1     1     2    1
     2     2    19    1
     3    19    20   ar
     4    20    21   ar
     5    21    22   ar
     6    22    23   ar
     7    23    24   ar
     8     2     3    1
     9     3     4    1
    10     4     5    1
    11     5     6   ar
    12     6     7   ar
    13     7    12    1
    14    12    13   ar
    15    13    14   ar
    16    14    15   ar
    17    15    16    1
    18    15    17   ar
    19    17    18   ar
    20     7     8   ar
    21     8     9   ar
    22     9    10   ar
    23    10     2    1
    24    24    19   ar
    25    10     5   ar
    26    18    12   ar
    27     1    11    1
@<TRIPOS>MOLECULE
*****
 24 27 0 0 0
SMALL
GASTEIGER

@<TRIPOS>ATOM
      1 O          60.3320   86.5569    8.6142 O.3     1  UNL1       -0.3785
      2 C          61.0341   87.4023    9.6353 C.3     1  UNL1        0.1271
      3 C          60.1375   88.4894    9.1211 C.3     1  UNL1        0.0401
      4 C          60.4421   89.7425    9.8873 C.3     1  UNL1        0.0292
      5 C          61.5270   89.4299   10.8749 C.ar    1  UNL1       -0.0236
      6 C          62.2289   90.2753   11.8958 C.ar    1  UNL1       -0.0045
      7 C          63.2967   89.6744   12.7611 C.ar    1  UNL1       -0.0003
      8 C          63.6626   88.2281   12.6053 C.ar    1  UNL1       -0.0003
      9 C          62.9606   87.3826   11.5844 C.ar    1  UNL1       -0.0020
     10 C          61.8928   87.9835   10.7191 C.ar    1  UNL1        0.0017
     11 H          59.6761   87.0953    8.1444 H       1  UNL1        0.2111
     12 C          63.9988   90.5199   13.7821 C.ar    1  UNL1        0.0001
     13 C          65.1707   91.3648   13.3786 C.ar    1  UNL1        0.0023
     14 C          65.8727   92.2102   14.3995 C.ar    1  UNL1        0.0296
     15 C          65.4028   92.2107   15.8241 C.ar    1  UNL1        0.1401
     16 F          66.1048   93.0562   16.8451 F       1  UNL1       -0.2042
     17 C          64.2309   91.3659   16.2276 C.ar    1  UNL1        0.0296
     18 C          63.5289   90.5204   15.2066 C.ar    1  UNL1        0.0023
     19 C          61.7839   86.1385    9.9359 C.ar    1  UNL1        0.0247
     20 C          62.7404   85.5758    8.9268 C.ar    1  UNL1        0.0014
     21 C          63.4903   84.3118    9.2275 C.ar    1  UNL1        0.0204
     22 C          63.2835   83.6107   10.5373 C.ar    1  UNL1        0.0989
     23 N          62.3270   84.1734   11.5465 N.ar    1  UNL1       -0.2426
     24 C          61.5772   85.4373   11.2458 C.ar    1  UNL1        0.0971
@<TRIPOS>BOND
     1     1     2    1
     2     2    19    1
     3    19    20   ar
     4    20    21   ar
     5    21    22   ar
     6    22    23   ar
     7    23    24   ar
     8     2     3    1
     9     3     4    1
    10     4     5    1
    11     5     6   ar
    12     6     7   ar
    13     7    12    1
    14    12    13   ar
    15    13    14   ar
    16    14    15   ar
    17    15    16    1
    18    15    17   ar
    19    17    18   ar
    20     7     8   ar
    21     8     9   ar
    22     9    10   ar
    23    10     2    1
    24    24    19   ar
    25    10     5   ar
    26    18    12   ar
    27     1    11    1
@<TRIPOS>MOLECULE
*****
 24 27 0 0 0
SMALL
GASTEIGER

@<TRIPOS>ATOM
      1 O          62.4111   84.4967   17.1509 O.3     1  UNL1       -0.3785
      2 C          62.8945   85.7862   16.5561 C.3     1  UNL1        0.1271
      3 C          62.4492   86.3734   17.8626 C.3     1  UNL1        0.0401
      4 C          62.7293   87.8466   17.8281 C.3     1  UNL1        0.0292
      5 C          63.3478   88.1699   16.5003 C.ar    1  UNL1       -0.0236
      6 C          63.8312   89.4593   15.9056 C.ar    1  UNL1       -0.0045
      7 C          64.4167   89.4752   14.5247 C.ar    1  UNL1       -0.0003
      8 C          64.5188   88.2018   13.7385 C.ar    1  UNL1       -0.0003
      9 C          64.0354   86.9124   14.3333 C.ar    1  UNL1       -0.0020
     10 C          63.4499   86.8965   15.7142 C.ar    1  UNL1        0.0017
     11 H          62.0649   84.6614   18.0419 H       1  UNL1        0.2111
     12 C          64.9001   90.7647   13.9299 C.ar    1  UNL1        0.0001
     13 C          64.4213   91.1911   12.5738 C.ar    1  UNL1        0.0023
     14 C          64.9047   92.4804   11.9790 C.ar    1  UNL1        0.0296
     15 C          65.8669   93.3435   12.7402 C.ar    1  UNL1        0.1401
     16 F          66.3503   94.6328   12.1454 F       1  UNL1       -0.2042
     17 C          66.3457   92.9171   14.0963 C.ar    1  UNL1        0.0296
     18 C          65.8623   91.6276   14.6911 C.ar    1  UNL1        0.0023
     19 C          63.2388   84.9294   15.3740 C.ar    1  UNL1        0.0247
     20 C          62.1542   84.4423   14.4595 C.ar    1  UNL1        0.0014
     21 C          62.4986   83.5855   13.2773 C.ar    1  UNL1        0.0204
     22 C          63.9275   83.2159   13.0097 C.ar    1  UNL1        0.0989
     23 N          65.0121   83.7030   13.9243 N.ar    1  UNL1       -0.2426
     24 C          64.6678   84.5598   15.1064 C.ar    1  UNL1        0.0971
@<TRIPOS>BOND
     1     1     2    1
     2     2    19    1
     3    19    20   ar
     4    20    21   ar
     5    21    22   ar
     6    22    23   ar
     7    23    24   ar
     8     2     3    1
     9     3     4    1
    10     4     5    1
    11     5     6   ar
    12     6     7   ar
    13     7    12    1
    14    12    13   ar
    15    13    14   ar
    16    14    15   ar
    17    15    16    1
    18    15    17   ar
    19    17    18   ar
    20     7     8   ar
    21     8     9   ar
    22     9    10   ar
    23    10     2    1
    24    24    19   ar
    25    10     5   ar
    26    18    12   ar
    27     1    11    1
@<TRIPOS>MOLECULE
*****
 24 27 0 0 0
SMALL
GASTEIGER

@<TRIPOS>ATOM
      1 O          61.6368   84.6979   11.0090 O.3     1  UNL1       -0.3785
      2 C          62.2971   85.8639   11.6833 C.3     1  UNL1        0.1271
      3 C          61.6732   86.6572   10.5735 C.3     1  UNL1        0.0401
      4 C          62.0495   88.0966   10.7645 C.3     1  UNL1        0.0292
      5 C          62.9059   88.1929   11.9922 C.ar    1  UNL1       -0.0236
      6 C          63.5662   89.3588   12.6664 C.ar    1  UNL1       -0.0045
      7 C          64.3794   89.1449   13.9085 C.ar    1  UNL1       -0.0003
      8 C          64.5324   87.7650   14.4764 C.ar    1  UNL1       -0.0003
      9 C          63.8721   86.5990   13.8022 C.ar    1  UNL1       -0.0020
     10 C          63.0589   86.8130   12.5601 C.ar    1  UNL1        0.0017
     11 H          61.1543   85.0077   10.2265 H       1  UNL1        0.2111
     12 C          65.0397   90.3108   14.5828 C.ar    1  UNL1        0.0001
     13 C          66.4069   90.7513   14.1507 C.ar    1  UNL1        0.0023
     14 C          67.0673   91.9172   14.8250 C.ar    1  UNL1        0.0296
     15 C          66.3603   92.6427   15.9313 C.ar    1  UNL1        0.1401
     16 F          67.0206   93.8086   16.6056 F       1  UNL1       -0.2042
     17 C          64.9931   92.2023   16.3634 C.ar    1  UNL1        0.0296
     18 C          64.3328   91.0363   15.6891 C.ar    1  UNL1        0.0023
     19 C          62.7829   84.8269   12.6521 C.ar    1  UNL1        0.0247
     20 C          62.0468   84.5996   13.9392 C.ar    1  UNL1        0.0014
     21 C          62.5327   83.5625   14.9080 C.ar    1  UNL1        0.0204
     22 C          63.7545   82.7527   14.5896 C.ar    1  UNL1        0.0989
     23 N          64.4905   82.9799   13.3025 N.ar    1  UNL1       -0.2426
     24 C          64.0047   84.0170   12.3337 C.ar    1  UNL1        0.0971
@<TRIPOS>BOND
     1     1     2    1
     2     2    19    1
     3    19    20   ar
     4    20    21   ar
     5    21    22   ar
     6    22    23   ar
     7    23    24   ar
     8     2     3    1
     9     3     4    1
    10     4     5    1
    11     5     6   ar
    12     6     7   ar
    13     7    12    1
    14    12    13   ar
    15    13    14   ar
    16    14    15   ar
    17    15    16    1
    18    15    17   ar
    19    17    18   ar
    20     7     8   ar
    21     8     9   ar
    22     9    10   ar
    23    10     2    1
    24    24    19   ar
    25    10     5   ar
    26    18    12   ar
    27     1    11    1
