@<TRIPOS>MOLECULE
*****
 36 40 0 0 0
SMALL
GASTEIGER

@<TRIPOS>ATOM
      1 C          62.9940   85.4541   12.9735 C.ar    1  UNL1        0.0289
      2 C          63.9130   86.0525   13.9969 C.ar    1  UNL1        0.0035
      3 C          64.2543   87.5119   13.9365 C.ar    1  UNL1        0.0147
      4 C          63.6765   88.3730   12.8527 C.ar    1  UNL1        0.0520
      5 C          62.7575   87.7747   11.8293 C.ar    1  UNL1        0.0207
      6 C          62.4162   86.3153   11.8897 C.ar    1  UNL1        0.1374
      7 F          61.4971   85.7170   10.8662 F       1  UNL1       -0.2045
      8 C          62.3436   88.8640   10.8847 C.3     1  UNL1        0.0518
      9 C          63.0069   90.1355   11.3244 C.3     1  UNL1        0.1030
     10 N          63.8306   89.8320   12.5406 N.am    1  UNL1       -0.2582
     11 C          64.6625   90.8150   13.3098 C.2     1  UNL1        0.2354
     12 O          65.4369   90.3632   14.5124 O.2     1  UNL1       -0.2741
     13 C          61.0883   80.8055   14.5982 C.3     1  UNL1        0.1319
     14 N          61.7768   81.8580   13.7807 N.ar    1  UNL1       -0.3094
     15 C          61.8845   83.3134   14.1274 C.ar    1  UNL1        0.0772
     16 C          62.6527   83.9947   13.0339 C.ar    1  UNL1        0.0250
     17 C          63.0197   82.9604   12.0114 C.ar    1  UNL1        0.0669
     18 C          63.7768   83.0505   10.7197 C.ar    1  UNL1        0.1300
     19 N          64.3182   84.3710   10.2581 N.pl3   1  UNL1       -0.3425
     20 N          63.9926   81.8200    9.8895 N.ar    1  UNL1       -0.2094
     21 C          63.4512   80.4994   10.3511 C.ar    1  UNL1        0.2014
     22 N          62.6941   80.4093   11.6428 N.ar    1  UNL1       -0.2065
     23 C          62.4783   81.6398   12.4729 C.ar    1  UNL1        0.1483
     24 H          64.1765   85.1787   10.8030 H       1  UNL1        0.1437
     25 H          64.8151   84.4301    9.4103 H       1  UNL1        0.1437
     26 C          64.7200   92.2500   12.8763 C.3     1  UNL1        0.1312
     27 C          65.7181   92.6820   11.8433 C.ar    1  UNL1        0.0681
     28 C          66.9555   91.8672   11.6091 C.ar    1  UNL1        0.0152
     29 C          67.9536   92.2992   10.5761 C.ar    1  UNL1        0.0027
     30 C          67.7143   93.5460    9.7773 C.ar    1  UNL1        0.0231
     31 C          66.4769   94.3609   10.0115 C.ar    1  UNL1        0.1522
     32 N          65.4788   93.9289   11.0445 N.ar    1  UNL1       -0.2452
     33 C          66.2376   95.6078    9.2127 C.3     1  UNL1        0.4348
     34 F          65.9984   96.8546    8.4139 F       1  UNL1       -0.1644
     35 F          67.2908   95.1822    8.2330 F       1  UNL1       -0.1644
     36 F          65.1845   96.0333   10.1924 F       1  UNL1       -0.1644
@<TRIPOS>BOND
     1    13    14    1
     2    14    15   ar
     3    15    16   ar
     4    16     1    1
     5     1     2   ar
     6     2     3   ar
     7     3     4   ar
     8     4     5   ar
     9     5     6   ar
    10     6     7    1
    11     5     8    1
    12     8     9    1
    13     9    10    1
    14    10    11   am
    15    11    12    2
    16    11    26    1
    17    26    27    1
    18    27    28   ar
    19    28    29   ar
    20    29    30   ar
    21    30    31   ar
    22    31    33    1
    23    33    34    1
    24    33    35    1
    25    33    36    1
    26    31    32   ar
    27    16    17   ar
    28    17    18   ar
    29    18    19    1
    30    18    20   ar
    31    20    21   ar
    32    21    22   ar
    33    22    23   ar
    34    23    14   ar
    35     6     1   ar
    36    32    27   ar
    37    23    17   ar
    38    10     4    1
    39    19    24    1
    40    19    25    1
@<TRIPOS>MOLECULE
*****
 36 40 0 0 0
SMALL
GASTEIGER

@<TRIPOS>ATOM
      1 C          63.0180   84.3995   11.9829 C.ar    1  UNL1        0.0289
      2 C          62.3237   85.3539   11.0572 C.ar    1  UNL1        0.0035
      3 C          62.4024   86.8311   11.3057 C.ar    1  UNL1        0.0147
      4 C          63.1755   87.3539   12.4799 C.ar    1  UNL1        0.0520
      5 C          63.8699   86.3996   13.4057 C.ar    1  UNL1        0.0207
      6 C          63.7912   84.9224   13.1572 C.ar    1  UNL1        0.1374
      7 F          64.4856   83.9680   14.0829 F       1  UNL1       -0.2045
      8 C          64.5522   87.2028   14.4730 C.3     1  UNL1        0.0518
      9 C          64.2795   88.6536   14.2069 C.3     1  UNL1        0.1030
     10 N          63.4287   88.7470   12.9751 N.am    1  UNL1       -0.2582
     11 C          62.9203   90.0114   12.3485 C.2     1  UNL1        0.2354
     12 O          62.0751   89.9480   11.1109 O.2     1  UNL1       -0.2741
     13 C          63.3427   79.6761    9.6453 C.3     1  UNL1        0.1319
     14 N          63.0885   80.7512   10.6599 N.ar    1  UNL1       -0.3094
     15 C          63.3305   82.2191   10.4685 C.ar    1  UNL1        0.0772
     16 C          62.9393   82.9223   11.7343 C.ar    1  UNL1        0.0250
     17 C          62.4555   81.8890   12.7081 C.ar    1  UNL1        0.0669
     18 C          61.9429   81.9966   14.1137 C.ar    1  UNL1        0.1300
     19 N          61.8506   83.3385   14.7777 N.pl3   1  UNL1       -0.3425
     20 N          61.5225   80.7624   14.8552 N.ar    1  UNL1       -0.2094
     21 C          61.6147   79.4206   14.1911 C.ar    1  UNL1        0.2014
     22 N          62.1273   79.3130   12.7856 N.ar    1  UNL1       -0.2065
     23 C          62.5477   80.5472   12.0441 C.ar    1  UNL1        0.1483
     24 H          62.1265   84.1486   14.2910 H       1  UNL1        0.1437
     25 H          61.5142   83.4091   15.7003 H       1  UNL1        0.1437
     26 C          63.2570   91.3394   12.9596 C.3     1  UNL1        0.1312
     27 C          64.6681   91.8465   12.9211 C.ar    1  UNL1        0.0681
     28 C          65.2630   92.3113   11.6250 C.ar    1  UNL1        0.0152
     29 C          66.6741   92.8184   11.5865 C.ar    1  UNL1        0.0027
     30 C          67.4904   92.8607   12.8441 C.ar    1  UNL1        0.0231
     31 C          66.8956   92.3960   14.1403 C.ar    1  UNL1        0.1522
     32 N          65.4844   91.8888   14.1788 N.ar    1  UNL1       -0.2452
     33 C          67.7119   92.4383   15.3980 C.3     1  UNL1        0.4348
     34 F          68.5282   92.4807   16.6558 F       1  UNL1       -0.1644
     35 F          66.4537   92.4929   16.2129 F       1  UNL1       -0.1644
     36 F          68.9701   92.3838   14.5832 F       1  UNL1       -0.1644
@<TRIPOS>BOND
     1    13    14    1
     2    14    15   ar
     3    15    16   ar
     4    16     1    1
     5     1     2   ar
     6     2     3   ar
     7     3     4   ar
     8     4     5   ar
     9     5     6   ar
    10     6     7    1
    11     5     8    1
    12     8     9    1
    13     9    10    1
    14    10    11   am
    15    11    12    2
    16    11    26    1
    17    26    27    1
    18    27    28   ar
    19    28    29   ar
    20    29    30   ar
    21    30    31   ar
    22    31    33    1
    23    33    34    1
    24    33    35    1
    25    33    36    1
    26    31    32   ar
    27    16    17   ar
    28    17    18   ar
    29    18    19    1
    30    18    20   ar
    31    20    21   ar
    32    21    22   ar
    33    22    23   ar
    34    23    14   ar
    35     6     1   ar
    36    32    27   ar
    37    23    17   ar
    38    10     4    1
    39    19    24    1
    40    19    25    1
@<TRIPOS>MOLECULE
*****
 36 40 0 0 0
SMALL
GASTEIGER

@<TRIPOS>ATOM
      1 C          62.7265   84.5751   12.8178 C.ar    1  UNL1        0.0289
      2 C          62.1540   85.3856   11.6930 C.ar    1  UNL1        0.0035
      3 C          62.3866   86.8666   11.6416 C.ar    1  UNL1        0.0147
      4 C          63.1918   87.5371   12.7150 C.ar    1  UNL1        0.0520
      5 C          63.7644   86.7266   13.8398 C.ar    1  UNL1        0.0207
      6 C          63.5317   85.2456   13.8912 C.ar    1  UNL1        0.1374
      7 F          64.1043   84.4351   15.0160 F       1  UNL1       -0.2045
      8 C          64.5112   87.6574   14.7485 C.3     1  UNL1        0.0518
      9 C          64.4001   89.0432   14.1853 C.3     1  UNL1        0.1030
     10 N          63.5847   88.9688   12.9285 N.am    1  UNL1       -0.2582
     11 C          63.2253   90.1235   12.0411 C.2     1  UNL1        0.2354
     12 O          62.3988   89.8947   10.8104 O.2     1  UNL1       -0.2741
     13 C          61.2818   79.7731   14.4713 C.3     1  UNL1        0.1319
     14 N          61.8298   80.8869   13.6292 N.ar    1  UNL1       -0.3094
     15 C          61.8618   82.3397   14.0012 C.ar    1  UNL1        0.0772
     16 C          62.4939   83.0941   12.8692 C.ar    1  UNL1        0.0250
     17 C          62.8525   82.1076   11.7977 C.ar    1  UNL1        0.0669
     18 C          63.4997   82.2752   10.4550 C.ar    1  UNL1        0.1300
     19 N          63.9101   83.6394    9.9852 N.pl3   1  UNL1       -0.3425
     20 N          63.7365   81.0787    9.5820 N.ar    1  UNL1       -0.2094
     21 C          63.3261   79.7145   10.0517 C.ar    1  UNL1        0.2014
     22 N          62.6789   79.5469   11.3944 N.ar    1  UNL1       -0.2065
     23 C          62.4421   80.7435   12.2674 C.ar    1  UNL1        0.1483
     24 H          63.7547   84.4247   10.5582 H       1  UNL1        0.1437
     25 H          64.3349   83.7494    9.1039 H       1  UNL1        0.1437
     26 C          63.6924   91.5070   12.3844 C.3     1  UNL1        0.1312
     27 C          65.1482   91.8539   12.2830 C.ar    1  UNL1        0.0681
     28 C          66.0028   91.8706   13.5155 C.ar    1  UNL1        0.0152
     29 C          67.4586   92.2175   13.4141 C.ar    1  UNL1        0.0027
     30 C          68.0598   92.5477   12.0802 C.ar    1  UNL1        0.0231
     31 C          67.2052   92.5310   10.8476 C.ar    1  UNL1        0.1522
     32 N          65.7494   92.1841   10.9490 N.ar    1  UNL1       -0.2452
     33 C          67.8063   92.8612    9.5136 C.3     1  UNL1        0.4348
     34 F          68.4075   93.1914    8.1796 F       1  UNL1       -0.1644
     35 F          68.0528   91.4028    9.2637 F       1  UNL1       -0.1644
     36 F          67.5599   94.3196    9.7635 F       1  UNL1       -0.1644
@<TRIPOS>BOND
     1    13    14    1
     2    14    15   ar
     3    15    16   ar
     4    16     1    1
     5     1     2   ar
     6     2     3   ar
     7     3     4   ar
     8     4     5   ar
     9     5     6   ar
    10     6     7    1
    11     5     8    1
    12     8     9    1
    13     9    10    1
    14    10    11   am
    15    11    12    2
    16    11    26    1
    17    26    27    1
    18    27    28   ar
    19    28    29   ar
    20    29    30   ar
    21    30    31   ar
    22    31    33    1
    23    33    34    1
    24    33    35    1
    25    33    36    1
    26    31    32   ar
    27    16    17   ar
    28    17    18   ar
    29    18    19    1
    30    18    20   ar
    31    20    21   ar
    32    21    22   ar
    33    22    23   ar
    34    23    14   ar
    35     6     1   ar
    36    32    27   ar
    37    23    17   ar
    38    10     4    1
    39    19    24    1
    40    19    25    1
@<TRIPOS>MOLECULE
*****
 36 40 0 0 0
SMALL
GASTEIGER

@<TRIPOS>ATOM
      1 C          63.0237   84.3285   11.9811 C.ar    1  UNL1        0.0289
      2 C          62.3414   85.2862   11.0499 C.ar    1  UNL1        0.0035
      3 C          62.4342   86.7635   11.2930 C.ar    1  UNL1        0.0147
      4 C          63.2095   87.2830   12.4674 C.ar    1  UNL1        0.0520
      5 C          63.8918   86.3253   13.3986 C.ar    1  UNL1        0.0207
      6 C          63.7989   84.8481   13.1555 C.ar    1  UNL1        0.1374
      7 F          64.4813   83.8904   14.0867 F       1  UNL1       -0.2045
      8 C          64.5794   87.1258   14.4646 C.3     1  UNL1        0.0518
      9 C          64.3220   88.5782   14.1923 C.3     1  UNL1        0.1030
     10 N          63.4753   88.6754   12.9579 N.am    1  UNL1       -0.2582
     11 C          62.9813   89.9424   12.3252 C.2     1  UNL1        0.2354
     12 O          62.1388   89.8828   11.0855 O.2     1  UNL1       -0.2741
     13 C          63.3050   79.5934    9.6616 C.3     1  UNL1        0.1319
     14 N          63.0601   80.6748   10.6719 N.ar    1  UNL1       -0.3094
     15 C          63.3167   82.1395   10.4753 C.ar    1  UNL1        0.0772
     16 C          62.9308   82.8512   11.7380 C.ar    1  UNL1        0.0250
     17 C          62.4356   81.8264   12.7150 C.ar    1  UNL1        0.0669
     18 C          61.9223   81.9443   14.1195 C.ar    1  UNL1        0.1300
     19 N          61.8424   83.2894   14.7784 N.pl3   1  UNL1       -0.3425
     20 N          61.4889   80.7170   14.8650 N.ar    1  UNL1       -0.2094
     21 C          61.5688   79.3718   14.2061 C.ar    1  UNL1        0.2014
     22 N          62.0821   79.2540   12.8016 N.ar    1  UNL1       -0.2065
     23 C          62.5155   80.4812   12.0561 C.ar    1  UNL1        0.1483
     24 H          62.1268   84.0949   14.2890 H       1  UNL1        0.1437
     25 H          61.5054   83.3668   15.7002 H       1  UNL1        0.1437
     26 C          63.3297   91.2693   12.9320 C.3     1  UNL1        0.1312
     27 C          64.7266   91.8034   12.8163 C.ar    1  UNL1        0.0681
     28 C          65.5749   91.9569   14.0437 C.ar    1  UNL1        0.0152
     29 C          66.9718   92.4910   13.9279 C.ar    1  UNL1        0.0027
     30 C          67.5203   92.8715   12.5847 C.ar    1  UNL1        0.0231
     31 C          66.6720   92.7180   11.3572 C.ar    1  UNL1        0.1522
     32 N          65.2751   92.1839   11.4730 N.ar    1  UNL1       -0.2452
     33 C          67.2206   93.0985   10.0140 C.3     1  UNL1        0.4348
     34 F          67.7691   93.4790    8.6707 F       1  UNL1       -0.1644
     35 F          68.2281   91.9916   10.1119 F       1  UNL1       -0.1644
     36 F          66.2130   94.2055    9.9161 F       1  UNL1       -0.1644
@<TRIPOS>BOND
     1    13    14    1
     2    14    15   ar
     3    15    16   ar
     4    16     1    1
     5     1     2   ar
     6     2     3   ar
     7     3     4   ar
     8     4     5   ar
     9     5     6   ar
    10     6     7    1
    11     5     8    1
    12     8     9    1
    13     9    10    1
    14    10    11   am
    15    11    12    2
    16    11    26    1
    17    26    27    1
    18    27    28   ar
    19    28    29   ar
    20    29    30   ar
    21    30    31   ar
    22    31    33    1
    23    33    34    1
    24    33    35    1
    25    33    36    1
    26    31    32   ar
    27    16    17   ar
    28    17    18   ar
    29    18    19    1
    30    18    20   ar
    31    20    21   ar
    32    21    22   ar
    33    22    23   ar
    34    23    14   ar
    35     6     1   ar
    36    32    27   ar
    37    23    17   ar
    38    10     4    1
    39    19    24    1
    40    19    25    1
@<TRIPOS>MOLECULE
*****
 36 40 0 0 0
SMALL
GASTEIGER

@<TRIPOS>ATOM
      1 C          62.7547   84.6551   12.7817 C.ar    1  UNL1        0.0289
      2 C          62.1808   85.4381   11.6383 C.ar    1  UNL1        0.0035
      3 C          62.3899   86.9217   11.5654 C.ar    1  UNL1        0.0147
      4 C          63.1729   87.6223   12.6359 C.ar    1  UNL1        0.0520
      5 C          63.7469   86.8393   13.7793 C.ar    1  UNL1        0.0207
      6 C          63.5378   85.3557   13.8523 C.ar    1  UNL1        0.1374
      7 F          64.1118   84.5727   14.9957 F       1  UNL1       -0.2045
      8 C          64.4690   87.7966   14.6804 C.3     1  UNL1        0.0518
      9 C          64.3413   89.1713   14.0939 C.3     1  UNL1        0.1030
     10 N          63.5403   89.0635   12.8303 N.am    1  UNL1       -0.2582
     11 C          63.1714   90.1978   11.9208 C.2     1  UNL1        0.2354
     12 O          62.3616   89.9359   10.6857 O.2     1  UNL1       -0.2741
     13 C          61.4278   79.8503   14.5235 C.3     1  UNL1        0.1319
     14 N          61.9357   80.9630   13.6552 N.ar    1  UNL1       -0.3094
     15 C          61.9564   82.4200   14.0114 C.ar    1  UNL1        0.0772
     16 C          62.5456   83.1715   12.8546 C.ar    1  UNL1        0.0250
     17 C          62.8891   82.1791   11.7836 C.ar    1  UNL1        0.0669
     18 C          63.4963   82.3419   10.4218 C.ar    1  UNL1        0.1300
     19 N          63.8733   83.7068    9.9270 N.pl3   1  UNL1       -0.3425
     20 N          63.7267   81.1398    9.5547 N.ar    1  UNL1       -0.2094
     21 C          63.3497   79.7748   10.0495 C.ar    1  UNL1        0.2014
     22 N          62.7425   79.6120   11.4114 N.ar    1  UNL1       -0.2065
     23 C          62.5121   80.8141   12.2784 C.ar    1  UNL1        0.1483
     24 H          63.7221   84.4958   10.4961 H       1  UNL1        0.1437
     25 H          64.2718   83.8137    9.0331 H       1  UNL1        0.1437
     26 C          63.6124   91.5941   12.2465 C.3     1  UNL1        0.1312
     27 C          65.0744   91.9165   12.3394 C.ar    1  UNL1        0.0681
     28 C          65.8560   92.2200   11.0958 C.ar    1  UNL1        0.0152
     29 C          67.3180   92.5424   11.1887 C.ar    1  UNL1        0.0027
     30 C          67.9983   92.5612   12.5253 C.ar    1  UNL1        0.0231
     31 C          67.2167   92.2577   13.7691 C.ar    1  UNL1        0.1522
     32 N          65.7548   91.9353   13.6761 N.ar    1  UNL1       -0.2452
     33 C          67.8971   92.2765   15.1058 C.3     1  UNL1        0.4348
     34 F          68.5775   92.2953   16.4425 F       1  UNL1       -0.1644
     35 F          68.1229   93.7532   14.9701 F       1  UNL1       -0.1644
     36 F          67.6713   90.7998   15.2415 F       1  UNL1       -0.1644
@<TRIPOS>BOND
     1    13    14    1
     2    14    15   ar
     3    15    16   ar
     4    16     1    1
     5     1     2   ar
     6     2     3   ar
     7     3     4   ar
     8     4     5   ar
     9     5     6   ar
    10     6     7    1
    11     5     8    1
    12     8     9    1
    13     9    10    1
    14    10    11   am
    15    11    12    2
    16    11    26    1
    17    26    27    1
    18    27    28   ar
    19    28    29   ar
    20    29    30   ar
    21    30    31   ar
    22    31    33    1
    23    33    34    1
    24    33    35    1
    25    33    36    1
    26    31    32   ar
    27    16    17   ar
    28    17    18   ar
    29    18    19    1
    30    18    20   ar
    31    20    21   ar
    32    21    22   ar
    33    22    23   ar
    34    23    14   ar
    35     6     1   ar
    36    32    27   ar
    37    23    17   ar
    38    10     4    1
    39    19    24    1
    40    19    25    1
@<TRIPOS>MOLECULE
*****
 36 40 0 0 0
SMALL
GASTEIGER

@<TRIPOS>ATOM
      1 C          61.7884   86.2709   10.9547 C.ar    1  UNL1        0.0289
      2 C          61.1136   85.7765    9.7098 C.ar    1  UNL1        0.0035
      3 C          60.5165   86.7541    8.7414 C.ar    1  UNL1        0.0147
      4 C          60.5944   88.2264    9.0180 C.ar    1  UNL1        0.0520
      5 C          61.2693   88.7209   10.2629 C.ar    1  UNL1        0.0207
      6 C          61.8663   87.7432   11.2313 C.ar    1  UNL1        0.1374
      7 F          62.5412   88.2377   12.4763 F       1  UNL1       -0.2045
      8 C          61.1928   90.2189   10.2678 C.3     1  UNL1        0.0518
      9 C          60.4706   90.6502    9.0259 C.3     1  UNL1        0.1030
     10 N          60.1008   89.4187    8.2535 N.am    1  UNL1       -0.2582
     11 C          59.3664   89.3855    6.9460 C.2     1  UNL1        0.2354
     12 O          59.0654   88.0715    6.2881 O.2     1  UNL1       -0.2741
     13 C          63.1009   83.8067   15.4363 C.3     1  UNL1        0.1319
     14 N          62.9887   84.1606   13.9830 N.ar    1  UNL1       -0.3094
     15 C          62.2260   85.3202   13.4143 C.ar    1  UNL1        0.0772
     16 C          62.3855   85.2932   11.9230 C.ar    1  UNL1        0.0250
     17 C          63.2468   84.1170   11.5701 C.ar    1  UNL1        0.0669
     18 C          63.7398   83.5929   10.2540 C.ar    1  UNL1        0.1300
     19 N          63.3669   84.2930    8.9808 N.pl3   1  UNL1       -0.3425
     20 N          64.6056   82.3688   10.2110 N.ar    1  UNL1       -0.2094
     21 C          64.9784   81.6688   11.4841 C.ar    1  UNL1        0.2014
     22 N          64.4855   82.1928   12.8003 N.ar    1  UNL1       -0.2065
     23 C          63.6196   83.4169   12.8433 C.ar    1  UNL1        0.1483
     24 H          62.7986   85.0964    9.0091 H       1  UNL1        0.1437
     25 H          63.6905   83.9490    8.1170 H       1  UNL1        0.1437
     26 C          58.9328   90.6663    6.2965 C.3     1  UNL1        0.1312
     27 C          59.6988   91.2112    5.1276 C.ar    1  UNL1        0.0681
     28 C          59.0692   92.2343    4.2295 C.ar    1  UNL1        0.0152
     29 C          59.8352   92.7792    3.0606 C.ar    1  UNL1        0.0027
     30 C          61.2308   92.3011    2.7899 C.ar    1  UNL1        0.0231
     31 C          61.8606   91.2780    3.6881 C.ar    1  UNL1        0.1522
     32 N          61.0946   90.7330    4.8569 N.ar    1  UNL1       -0.2452
     33 C          63.2563   90.7998    3.4173 C.3     1  UNL1        0.4348
     34 F          64.6521   90.3216    3.1466 F       1  UNL1       -0.1644
     35 F          62.7787   89.3787    3.4650 F       1  UNL1       -0.1644
     36 F          63.7340   92.2210    3.3697 F       1  UNL1       -0.1644
@<TRIPOS>BOND
     1    13    14    1
     2    14    15   ar
     3    15    16   ar
     4    16     1    1
     5     1     2   ar
     6     2     3   ar
     7     3     4   ar
     8     4     5   ar
     9     5     6   ar
    10     6     7    1
    11     5     8    1
    12     8     9    1
    13     9    10    1
    14    10    11   am
    15    11    12    2
    16    11    26    1
    17    26    27    1
    18    27    28   ar
    19    28    29   ar
    20    29    30   ar
    21    30    31   ar
    22    31    33    1
    23    33    34    1
    24    33    35    1
    25    33    36    1
    26    31    32   ar
    27    16    17   ar
    28    17    18   ar
    29    18    19    1
    30    18    20   ar
    31    20    21   ar
    32    21    22   ar
    33    22    23   ar
    34    23    14   ar
    35     6     1   ar
    36    32    27   ar
    37    23    17   ar
    38    10     4    1
    39    19    24    1
    40    19    25    1
@<TRIPOS>MOLECULE
*****
 36 40 0 0 0
SMALL
GASTEIGER

@<TRIPOS>ATOM
      1 C          61.7295   86.2894   10.9026 C.ar    1  UNL1        0.0289
      2 C          60.9179   85.7932    9.7428 C.ar    1  UNL1        0.0035
      3 C          60.3654   86.7656    8.7433 C.ar    1  UNL1        0.0147
      4 C          60.6245   88.2344    8.9035 C.ar    1  UNL1        0.0520
      5 C          61.4361   88.7307   10.0633 C.ar    1  UNL1        0.0207
      6 C          61.9886   87.7582   11.0628 C.ar    1  UNL1        0.1374
      7 F          62.8001   88.2545   12.2226 F       1  UNL1       -0.2045
      8 C          61.5257   90.2244    9.9608 C.3     1  UNL1        0.0518
      9 C          60.7696   90.6514    8.7377 C.3     1  UNL1        0.1030
     10 N          60.2126   89.4215    8.0843 N.am    1  UNL1       -0.2582
     11 C          59.3884   89.3850    6.8316 C.2     1  UNL1        0.2354
     12 O          58.8987   88.0731    6.2939 O.2     1  UNL1       -0.2741
     13 C          62.8303   83.8438   15.4510 C.3     1  UNL1        0.1319
     14 N          62.7880   84.1928   13.9927 N.ar    1  UNL1       -0.3094
     15 C          62.0497   85.3478   13.3837 C.ar    1  UNL1        0.0772
     16 C          62.2820   85.3169   11.9021 C.ar    1  UNL1        0.0250
     17 C          63.1638   84.1428   11.5955 C.ar    1  UNL1        0.0669
     18 C          63.7223   83.6166   10.3067 C.ar    1  UNL1        0.1300
     19 N          63.4096   84.3113    9.0146 N.pl3   1  UNL1       -0.3425
     20 N          64.5936   82.3956   10.3100 N.ar    1  UNL1       -0.2094
     21 C          64.9063   81.7009   11.6021 C.ar    1  UNL1        0.2014
     22 N          64.3478   82.2271   12.8909 N.ar    1  UNL1       -0.2065
     23 C          63.4765   83.4481   12.8876 C.ar    1  UNL1        0.1483
     24 H          62.8378   85.1127    9.0124 H       1  UNL1        0.1437
     25 H          63.7762   83.9660    8.1687 H       1  UNL1        0.1437
     26 C          59.0540   90.6605    6.1164 C.3     1  UNL1        0.1312
     27 C          59.9522   91.1675    5.0274 C.ar    1  UNL1        0.0681
     28 C          61.3637   90.6701    4.9270 C.ar    1  UNL1        0.0152
     29 C          62.2619   91.1771    3.8379 C.ar    1  UNL1        0.0027
     30 C          61.7487   92.1814    2.8492 C.ar    1  UNL1        0.0231
     31 C          60.3371   92.6789    2.9495 C.ar    1  UNL1        0.1522
     32 N          59.4389   92.1719    4.0386 N.ar    1  UNL1       -0.2452
     33 C          59.8238   93.6833    1.9607 C.3     1  UNL1        0.4348
     34 F          59.3105   94.6877    0.9719 F       1  UNL1       -0.1644
     35 F          60.2443   94.7968    2.8735 F       1  UNL1       -0.1644
     36 F          59.4033   92.5697    1.0478 F       1  UNL1       -0.1644
@<TRIPOS>BOND
     1    13    14    1
     2    14    15   ar
     3    15    16   ar
     4    16     1    1
     5     1     2   ar
     6     2     3   ar
     7     3     4   ar
     8     4     5   ar
     9     5     6   ar
    10     6     7    1
    11     5     8    1
    12     8     9    1
    13     9    10    1
    14    10    11   am
    15    11    12    2
    16    11    26    1
    17    26    27    1
    18    27    28   ar
    19    28    29   ar
    20    29    30   ar
    21    30    31   ar
    22    31    33    1
    23    33    34    1
    24    33    35    1
    25    33    36    1
    26    31    32   ar
    27    16    17   ar
    28    17    18   ar
    29    18    19    1
    30    18    20   ar
    31    20    21   ar
    32    21    22   ar
    33    22    23   ar
    34    23    14   ar
    35     6     1   ar
    36    32    27   ar
    37    23    17   ar
    38    10     4    1
    39    19    24    1
    40    19    25    1
