@<TRIPOS>MOLECULE
*****
 34 37 0 0 0
SMALL
GASTEIGER

@<TRIPOS>ATOM
      1 C          64.0936   90.4854   13.0849 C.3     1  UNL1        0.0938
      2 C          64.3461   90.6022   14.5589 C.3     1  UNL1        0.0505
      3 C          65.1692   91.8344   14.7919 C.3     1  UNL1        0.1535
      4 N          65.4253   92.4791   13.4620 N.am    1  UNL1       -0.2676
      5 C          66.2087   93.7368   13.2280 C.2     1  UNL1        0.2526
      6 O          66.8191   94.4667   14.3876 O.2     1  UNL1       -0.2698
      7 C          64.7606   91.6454   12.4070 C.3     1  UNL1        0.1136
      8 C          66.3817   94.2644   11.8346 C.ar    1  UNL1        0.0940
      9 C          65.8003   95.5377   11.2954 C.ar    1  UNL1        0.1840
     10 O          66.2258   95.6715    9.8633 O.2     1  UNL1       -0.4503
     11 C          67.0701   94.4810    9.5173 C.ar    1  UNL1        0.1456
     12 C          67.7636   94.0764    8.2503 C.ar    1  UNL1        0.0375
     13 C          68.5534   92.8022    8.2016 C.ar    1  UNL1        0.0031
     14 C          68.6498   91.9325    9.4200 C.ar    1  UNL1        0.0002
     15 C          67.9563   92.3371   10.6870 C.ar    1  UNL1        0.0033
     16 C          67.1665   93.6113   10.7356 C.ar    1  UNL1        0.0420
     17 C          65.6514   92.3342   16.1214 C.2     1  UNL1        0.2375
     18 N          67.1218   92.4833   16.3782 N.am    1  UNL1       -0.3275
     19 O          64.6634   92.6848   17.1942 O.2     1  UNL1       -0.2736
     20 H          67.7703   92.2531   15.6741 H       1  UNL1        0.1450
     21 H          67.4383   92.8113   17.2508 H       1  UNL1        0.1450
     22 C          62.5887   89.6840   11.1245 C.2     1  UNL1        0.2633
     23 O          62.6481   91.0548   10.5185 O.2     1  UNL1       -0.2685
     24 N          63.3114   89.3993   12.4078 N.am    1  UNL1       -0.2995
     25 H          63.2724   88.4996   12.8055 H       1  UNL1        0.1498
     26 C          61.2064   86.7450    8.9992 C.ar    1  UNL1        0.0802
     27 C          62.3234   87.6659    9.3919 C.ar    1  UNL1        0.0398
     28 C          61.8065   88.5979   10.4474 C.ar    1  UNL1        0.1322
     29 N          60.3700   88.2530   10.7070 N.ar    1  UNL1       -0.2468
     30 N          59.9991   87.1080    9.8120 N.ar    1  UNL1       -0.1736
     31 C          62.6091   85.0456    7.6228 C.3     1  UNL1        0.0068
     32 C          61.2832   85.6531    7.9737 C.3     1  UNL1        0.0476
     33 C          59.4634   88.9338   11.6893 C.3     1  UNL1        0.1277
     34 C          59.2533   90.4170   11.6127 C.3     1  UNL1        0.0284
@<TRIPOS>BOND
     1    31    32    1
     2    32    26    1
     3    26    27   ar
     4    27    28   ar
     5    28    22    1
     6    22    23    2
     7    22    24   am
     8     1    24    1
     9     1     2    1
    10     2     3    1
    11     3    17    1
    12    17    18   am
    13    17    19    2
    14     3     4    1
    15     4     5   am
    16     5     6    2
    17     5     8    1
    18     8     9   ar
    19     9    10   ar
    20    10    11   ar
    21    11    12   ar
    22    12    13   ar
    23    13    14   ar
    24    14    15   ar
    25    15    16   ar
    26     4     7    1
    27    28    29   ar
    28    29    33    1
    29    33    34    1
    30    29    30   ar
    31    30    26   ar
    32     7     1    1
    33    16     8   ar
    34    16    11   ar
    35    24    25    1
    36    18    20    1
    37    18    21    1
@<TRIPOS>MOLECULE
*****
 34 37 0 0 0
SMALL
GASTEIGER

@<TRIPOS>ATOM
      1 C          62.3814   89.3792   10.9829 C.3     1  UNL1        0.0938
      2 C          61.2422   89.7234   10.0698 C.3     1  UNL1        0.0505
      3 C          60.8684   88.4862    9.3084 C.3     1  UNL1        0.1535
      4 N          61.7766   87.3775    9.7509 N.am    1  UNL1       -0.2676
      5 C          61.7537   85.9648    9.2470 C.2     1  UNL1        0.2526
      6 O          60.7557   85.5566    8.2044 O.2     1  UNL1       -0.2698
      7 C          62.7117   87.9294   10.7858 C.3     1  UNL1        0.1136
      8 C          62.7288   84.9604    9.7859 C.ar    1  UNL1        0.0940
      9 C          63.7149   84.1683    8.9794 C.ar    1  UNL1        0.1840
     10 O          64.4846   83.2902    9.9209 O.2     1  UNL1       -0.4503
     11 C          63.9742   83.5395   11.3093 C.ar    1  UNL1        0.1456
     12 C          64.3574   82.9600   12.6386 C.ar    1  UNL1        0.0375
     13 C          63.6554   83.4127   13.8845 C.ar    1  UNL1        0.0031
     14 C          62.5703   84.4449   13.8010 C.ar    1  UNL1        0.0002
     15 C          62.1871   85.0245   12.4717 C.ar    1  UNL1        0.0033
     16 C          62.8891   84.5718   11.2258 C.ar    1  UNL1        0.0420
     17 C          59.7779   88.3770    8.2843 C.2     1  UNL1        0.2375
     18 N          58.7064   87.3385    8.4375 N.am    1  UNL1       -0.3275
     19 O          59.7589   89.3063    7.1070 O.2     1  UNL1       -0.2736
     20 H          58.7189   86.7286    9.2102 H       1  UNL1        0.1450
     21 H          57.9907   87.2668    7.7653 H       1  UNL1        0.1450
     22 C          63.7766   89.7840   13.1370 C.2     1  UNL1        0.2633
     23 O          63.7954   88.3079   13.4022 O.2     1  UNL1       -0.2685
     24 N          63.0696   90.3197   11.9273 N.am    1  UNL1       -0.2995
     25 H          63.0572   91.2886   11.7531 H       1  UNL1        0.1498
     26 C          65.9918   92.3796   14.9867 C.ar    1  UNL1        0.0802
     27 C          65.6268   91.6133   13.7500 C.ar    1  UNL1        0.0398
     28 C          64.4647   90.7247   14.0813 C.ar    1  UNL1        0.1322
     29 N          64.1114   90.9417   15.5228 N.ar    1  UNL1       -0.2468
     30 N          65.0551   91.9645   16.0824 N.ar    1  UNL1       -0.1736
     31 C          68.3918   93.0011   15.7634 C.3     1  UNL1        0.0068
     32 C          67.0989   93.3845   15.1066 C.3     1  UNL1        0.0476
     33 C          63.0081   90.2564   16.2731 C.3     1  UNL1        0.1277
     34 C          63.1899   88.8466   16.7521 C.3     1  UNL1        0.0284
@<TRIPOS>BOND
     1    31    32    1
     2    32    26    1
     3    26    27   ar
     4    27    28   ar
     5    28    22    1
     6    22    23    2
     7    22    24   am
     8     1    24    1
     9     1     2    1
    10     2     3    1
    11     3    17    1
    12    17    18   am
    13    17    19    2
    14     3     4    1
    15     4     5   am
    16     5     6    2
    17     5     8    1
    18     8     9   ar
    19     9    10   ar
    20    10    11   ar
    21    11    12   ar
    22    12    13   ar
    23    13    14   ar
    24    14    15   ar
    25    15    16   ar
    26     4     7    1
    27    28    29   ar
    28    29    33    1
    29    33    34    1
    30    29    30   ar
    31    30    26   ar
    32     7     1    1
    33    16     8   ar
    34    16    11   ar
    35    24    25    1
    36    18    20    1
    37    18    21    1
@<TRIPOS>MOLECULE
*****
 34 37 0 0 0
SMALL
GASTEIGER

@<TRIPOS>ATOM
      1 C          64.4338   88.6167   14.7832 C.3     1  UNL1        0.0938
      2 C          63.7009   88.5136   16.0879 C.3     1  UNL1        0.0505
      3 C          63.1191   87.1344   16.1849 C.3     1  UNL1        0.1535
      4 N          63.4925   86.3852   14.9402 N.am    1  UNL1       -0.2676
      5 C          63.1189   84.9685   14.6183 C.2     1  UNL1        0.2526
      6 O          62.2974   84.1710   15.5872 O.2     1  UNL1       -0.2698
      7 C          64.3050   87.3013   14.0740 C.3     1  UNL1        0.1136
      8 C          63.5669   84.3496   13.3275 C.ar    1  UNL1        0.0940
      9 C          64.5071   83.1895   13.1855 C.ar    1  UNL1        0.1840
     10 O          64.6746   82.9050   11.7223 O.2     1  UNL1       -0.4503
     11 C          63.8379   83.8893   10.9600 C.ar    1  UNL1        0.1456
     12 C          63.6110   84.0879    9.4906 C.ar    1  UNL1        0.0375
     13 C          62.6994   85.1793    9.0134 C.ar    1  UNL1        0.0031
     14 C          62.0148   86.0721   10.0054 C.ar    1  UNL1        0.0002
     15 C          62.2417   85.8735   11.4748 C.ar    1  UNL1        0.0033
     16 C          63.1533   84.7821   11.9520 C.ar    1  UNL1        0.0420
     17 C          62.3065   86.5986   17.3262 C.2     1  UNL1        0.2375
     18 N          62.8811   86.5789   18.7117 N.am    1  UNL1       -0.3275
     19 O          60.9195   86.0824   17.0821 O.2     1  UNL1       -0.2736
     20 H          63.7914   86.9176   18.8720 H       1  UNL1        0.1450
     21 H          62.3478   86.2271   19.4608 H       1  UNL1        0.1450
     22 C          64.4652   90.8106   13.3917 C.2     1  UNL1        0.2633
     23 O          63.0305   90.5910   13.0132 O.2     1  UNL1       -0.2685
     24 N          65.1669   89.8234   14.2768 N.am    1  UNL1       -0.2995
     25 H          66.1085   89.9675   14.5253 H       1  UNL1        0.1498
     26 C          66.0823   93.7311   11.4117 C.ar    1  UNL1        0.0802
     27 C          65.2341   92.4952   11.4640 C.ar    1  UNL1        0.0398
     28 C          65.1983   92.0173   12.8853 C.ar    1  UNL1        0.1322
     29 N          66.0245   92.9579   13.7115 N.ar    1  UNL1       -0.2468
     30 N          66.5708   94.0171   12.8008 N.ar    1  UNL1       -0.1736
     31 C          67.6504   94.2854    9.4158 C.3     1  UNL1        0.0068
     32 C          66.3883   94.5392   10.1856 C.3     1  UNL1        0.0476
     33 C          66.2625   92.8571   15.1891 C.3     1  UNL1        0.1277
     34 C          67.6412   93.0641   15.7425 C.3     1  UNL1        0.0284
@<TRIPOS>BOND
     1    31    32    1
     2    32    26    1
     3    26    27   ar
     4    27    28   ar
     5    28    22    1
     6    22    23    2
     7    22    24   am
     8     1    24    1
     9     1     2    1
    10     2     3    1
    11     3    17    1
    12    17    18   am
    13    17    19    2
    14     3     4    1
    15     4     5   am
    16     5     6    2
    17     5     8    1
    18     8     9   ar
    19     9    10   ar
    20    10    11   ar
    21    11    12   ar
    22    12    13   ar
    23    13    14   ar
    24    14    15   ar
    25    15    16   ar
    26     4     7    1
    27    28    29   ar
    28    29    33    1
    29    33    34    1
    30    29    30   ar
    31    30    26   ar
    32     7     1    1
    33    16     8   ar
    34    16    11   ar
    35    24    25    1
    36    18    20    1
    37    18    21    1
@<TRIPOS>MOLECULE
*****
 34 37 0 0 0
SMALL
GASTEIGER

@<TRIPOS>ATOM
      1 C          64.1084   89.5673   13.6260 C.3     1  UNL1        0.0938
      2 C          63.9688   90.1042   15.0196 C.3     1  UNL1        0.0505
      3 C          64.6681   91.4299   15.0778 C.3     1  UNL1        0.1535
      4 N          65.2399   91.7123   13.7202 N.am    1  UNL1       -0.2676
      5 C          66.0206   92.9319   13.3285 C.2     1  UNL1        0.2526
      6 O          66.2900   94.0066   14.3396 O.2     1  UNL1       -0.2698
      7 C          64.8940   90.5612   12.8229 C.3     1  UNL1        0.1136
      8 C          66.5318   93.0767   11.9258 C.ar    1  UNL1        0.0940
      9 C          67.2552   92.0249   11.1381 C.ar    1  UNL1        0.1840
     10 O          67.5798   92.5968    9.7899 O.2     1  UNL1       -0.4503
     11 C          67.0571   94.0021    9.7444 C.ar    1  UNL1        0.1456
     12 C          67.0872   95.0499    8.6716 C.ar    1  UNL1        0.0375
     13 C          66.4697   96.3943    8.9188 C.ar    1  UNL1        0.0031
     14 C          65.8219   96.6909   10.2388 C.ar    1  UNL1        0.0002
     15 C          65.7918   95.6430   11.3117 C.ar    1  UNL1        0.0033
     16 C          66.4094   94.2986   11.0645 C.ar    1  UNL1        0.0420
     17 C          64.7766   92.3174   16.2822 C.2     1  UNL1        0.2375
     18 N          66.1261   92.7296   16.7910 N.am    1  UNL1       -0.3275
     19 O          63.5355   92.7927   16.9778 O.2     1  UNL1       -0.2736
     20 H          66.9407   92.4177   16.3345 H       1  UNL1        0.1450
     21 H          66.1973   93.3121   17.5815 H       1  UNL1        0.1450
     22 C          63.9920   86.9750   13.7547 C.2     1  UNL1        0.2633
     23 O          64.9746   86.9871   14.8879 O.2     1  UNL1       -0.2685
     24 N          63.5589   88.2651   13.1237 N.am    1  UNL1       -0.2995
     25 H          62.9140   88.2572   12.3799 H       1  UNL1        0.1498
     26 C          62.8713   83.3200   13.0834 C.ar    1  UNL1        0.0802
     27 C          63.5637   84.3426   13.9347 C.ar    1  UNL1        0.0398
     28 C          63.4424   85.6728   13.2523 C.ar    1  UNL1        0.1322
     29 N          62.6750   85.4724   11.9792 N.ar    1  UNL1       -0.2468
     30 N          62.3220   84.0183   11.8747 N.ar    1  UNL1       -0.1736
     31 C          61.5399   81.3377   14.1069 C.3     1  UNL1        0.0068
     32 C          62.7496   81.8562   13.3873 C.3     1  UNL1        0.0476
     33 C          62.3224   86.5388   10.9850 C.3     1  UNL1        0.1277
     34 C          60.8956   86.9727   10.8249 C.3     1  UNL1        0.0284
@<TRIPOS>BOND
     1    31    32    1
     2    32    26    1
     3    26    27   ar
     4    27    28   ar
     5    28    22    1
     6    22    23    2
     7    22    24   am
     8     1    24    1
     9     1     2    1
    10     2     3    1
    11     3    17    1
    12    17    18   am
    13    17    19    2
    14     3     4    1
    15     4     5   am
    16     5     6    2
    17     5     8    1
    18     8     9   ar
    19     9    10   ar
    20    10    11   ar
    21    11    12   ar
    22    12    13   ar
    23    13    14   ar
    24    14    15   ar
    25    15    16   ar
    26     4     7    1
    27    28    29   ar
    28    29    33    1
    29    33    34    1
    30    29    30   ar
    31    30    26   ar
    32     7     1    1
    33    16     8   ar
    34    16    11   ar
    35    24    25    1
    36    18    20    1
    37    18    21    1
@<TRIPOS>MOLECULE
*****
 34 37 0 0 0
SMALL
GASTEIGER

@<TRIPOS>ATOM
      1 C          62.7183   89.4559   11.2458 C.3     1  UNL1        0.0938
      2 C          61.5594   89.9486   10.4309 C.3     1  UNL1        0.0505
      3 C          61.0297   88.7940    9.6331 C.3     1  UNL1        0.1535
      4 N          61.8612   87.5879    9.9550 N.am    1  UNL1       -0.2676
      5 C          61.6808   86.2138    9.3809 C.2     1  UNL1        0.2526
      6 O          60.5870   85.9535    8.3882 O.2     1  UNL1       -0.2698
      7 C          62.9049   87.9969   10.9517 C.3     1  UNL1        0.1136
      8 C          62.5943   85.1001    9.7997 C.ar    1  UNL1        0.0940
      9 C          63.4621   84.2822    8.8897 C.ar    1  UNL1        0.1840
     10 O          64.2044   83.2855    9.7296 O.2     1  UNL1       -0.4503
     11 C          63.7955   83.4874   11.1586 C.ar    1  UNL1        0.1456
     12 C          64.2007   82.7949   12.4259 C.ar    1  UNL1        0.0375
     13 C          63.6108   83.2240   13.7366 C.ar    1  UNL1        0.0031
     14 C          62.6157   84.3455   13.7799 C.ar    1  UNL1        0.0002
     15 C          62.2105   85.0380   12.5126 C.ar    1  UNL1        0.0033
     16 C          62.8004   84.6089   11.2019 C.ar    1  UNL1        0.0420
     17 C          59.8717   88.8380    8.6807 C.2     1  UNL1        0.2375
     18 N          59.8989   89.7750    7.5097 N.am    1  UNL1       -0.3275
     19 O          58.6866   87.9449    8.8993 O.2     1  UNL1       -0.2736
     20 H          60.6768   90.3612    7.3662 H       1  UNL1        0.1450
     21 H          59.1389   89.8039    6.8846 H       1  UNL1        0.1450
     22 C          64.3911   91.3996   11.6630 C.2     1  UNL1        0.2633
     23 O          64.4095   91.6992   10.1935 O.2     1  UNL1       -0.2685
     24 N          63.5455   90.2779   12.1893 N.am    1  UNL1       -0.2995
     25 H          63.5334   90.0812   13.1538 H       1  UNL1        0.1498
     26 C          66.4061   92.9632   14.5888 C.ar    1  UNL1        0.0802
     27 C          65.5669   91.8581   14.0195 C.ar    1  UNL1        0.0398
     28 C          65.2183   92.2216   12.6065 C.ar    1  UNL1        0.1322
     29 N          65.8421   93.5514   12.3027 N.ar    1  UNL1       -0.2468
     30 N          66.5762   94.0098   13.5277 N.ar    1  UNL1       -0.1736
     31 C          68.3144   92.3997   16.2594 C.3     1  UNL1        0.0068
     32 C          66.9753   93.0131   15.9757 C.3     1  UNL1        0.0476
     33 C          65.7483   94.2927   11.0020 C.3     1  UNL1        0.1277
     34 C          66.8754   94.2211   10.0149 C.3     1  UNL1        0.0284
@<TRIPOS>BOND
     1    31    32    1
     2    32    26    1
     3    26    27   ar
     4    27    28   ar
     5    28    22    1
     6    22    23    2
     7    22    24   am
     8     1    24    1
     9     1     2    1
    10     2     3    1
    11     3    17    1
    12    17    18   am
    13    17    19    2
    14     3     4    1
    15     4     5   am
    16     5     6    2
    17     5     8    1
    18     8     9   ar
    19     9    10   ar
    20    10    11   ar
    21    11    12   ar
    22    12    13   ar
    23    13    14   ar
    24    14    15   ar
    25    15    16   ar
    26     4     7    1
    27    28    29   ar
    28    29    33    1
    29    33    34    1
    30    29    30   ar
    31    30    26   ar
    32     7     1    1
    33    16     8   ar
    34    16    11   ar
    35    24    25    1
    36    18    20    1
    37    18    21    1
@<TRIPOS>MOLECULE
*****
 34 37 0 0 0
SMALL
GASTEIGER

@<TRIPOS>ATOM
      1 C          63.4856   91.1856   10.9061 C.3     1  UNL1        0.0938
      2 C          64.7003   92.0125   10.6052 C.3     1  UNL1        0.0505
      3 C          65.4753   92.1783   11.8788 C.3     1  UNL1        0.1535
      4 N          64.7394   91.4539   12.9668 N.am    1  UNL1       -0.2676
      5 C          65.1594   91.3596   14.4037 C.2     1  UNL1        0.2526
      6 O          66.4215   92.0285   14.8615 O.2     1  UNL1       -0.2698
      7 C          63.5097   90.8404   12.3656 C.3     1  UNL1        0.1136
      8 C          64.3174   90.5963   15.3827 C.ar    1  UNL1        0.0940
      9 C          63.4823   91.1901   16.4782 C.ar    1  UNL1        0.1840
     10 O          62.8114   90.0660   17.2106 O.2     1  UNL1       -0.4503
     11 C          63.2319   88.7776   16.5677 C.ar    1  UNL1        0.1456
     12 C          62.8875   87.3483   16.8651 C.ar    1  UNL1        0.0375
     13 C          63.4738   86.2468   16.0328 C.ar    1  UNL1        0.0031
     14 C          64.4046   86.5746   14.9031 C.ar    1  UNL1        0.0002
     15 C          64.7490   88.0039   14.6057 C.ar    1  UNL1        0.0033
     16 C          64.1626   89.1054   15.4380 C.ar    1  UNL1        0.0420
     17 C          66.7604   92.9355   12.0367 C.2     1  UNL1        0.2375
     18 N          68.0061   92.2178   12.4647 N.am    1  UNL1       -0.3275
     19 O          66.7999   94.4105   11.7666 O.2     1  UNL1       -0.2736
     20 H          67.9802   91.2497   12.6420 H       1  UNL1        0.1450
     21 H          68.8496   92.7148   12.5683 H       1  UNL1        0.1450
     22 C          61.9054   89.3713    9.9257 C.2     1  UNL1        0.2633
     23 O          62.4329   88.3764   10.9165 O.2     1  UNL1       -0.2685
     24 N          62.4317   90.7759    9.9205 N.am    1  UNL1       -0.2995
     25 H          62.0854   91.4290    9.2702 H       1  UNL1        0.1498
     26 C          59.1271   89.0497    7.2343 C.ar    1  UNL1        0.0802
     27 C          60.0660   89.8833    8.0549 C.ar    1  UNL1        0.0398
     28 C          60.8514   88.9616    8.9400 C.ar    1  UNL1        0.1322
     29 N          60.3980   87.5582    8.6665 N.ar    1  UNL1       -0.2468
     30 N          59.3324   87.6126    7.6123 N.ar    1  UNL1       -0.1736
     31 C          58.4334   90.8464    5.4906 C.3     1  UNL1        0.0068
     32 C          58.1539   89.5628    6.2148 C.3     1  UNL1        0.0476
     33 C          60.9188   86.3181    9.3305 C.3     1  UNL1        0.1277
     34 C          62.1986   85.6950    8.8572 C.3     1  UNL1        0.0284
@<TRIPOS>BOND
     1    31    32    1
     2    32    26    1
     3    26    27   ar
     4    27    28   ar
     5    28    22    1
     6    22    23    2
     7    22    24   am
     8     1    24    1
     9     1     2    1
    10     2     3    1
    11     3    17    1
    12    17    18   am
    13    17    19    2
    14     3     4    1
    15     4     5   am
    16     5     6    2
    17     5     8    1
    18     8     9   ar
    19     9    10   ar
    20    10    11   ar
    21    11    12   ar
    22    12    13   ar
    23    13    14   ar
    24    14    15   ar
    25    15    16   ar
    26     4     7    1
    27    28    29   ar
    28    29    33    1
    29    33    34    1
    30    29    30   ar
    31    30    26   ar
    32     7     1    1
    33    16     8   ar
    34    16    11   ar
    35    24    25    1
    36    18    20    1
    37    18    21    1
@<TRIPOS>MOLECULE
*****
 34 37 0 0 0
SMALL
GASTEIGER

@<TRIPOS>ATOM
      1 C          64.1481   86.2809   14.2777 C.3     1  UNL1        0.0938
      2 C          64.0804   84.9939   15.0452 C.3     1  UNL1        0.0505
      3 C          63.5655   83.9300   14.1216 C.3     1  UNL1        0.1535
      4 N          63.3149   84.5595   12.7833 N.am    1  UNL1       -0.2676
      5 C          62.7955   83.8591   11.5628 C.2     1  UNL1        0.2526
      6 O          62.4772   82.3943   11.6172 O.2     1  UNL1       -0.2698
      7 C          63.6750   86.0125   12.8799 C.3     1  UNL1        0.1136
      8 C          62.5944   84.6235   10.2879 C.ar    1  UNL1        0.0940
      9 C          63.2286   84.3133    8.9645 C.ar    1  UNL1        0.1840
     10 O          62.7499   85.3305    7.9714 O.2     1  UNL1       -0.4503
     11 C          61.8198   86.2693    8.6811 C.ar    1  UNL1        0.1456
     12 C          61.0480   87.4655    8.2086 C.ar    1  UNL1        0.0375
     13 C          60.1802   88.2249    9.1678 C.ar    1  UNL1        0.0031
     14 C          60.0841   87.7879   10.5995 C.ar    1  UNL1        0.0002
     15 C          60.8558   86.5917   11.0720 C.ar    1  UNL1        0.0033
     16 C          61.7237   85.8324   10.1128 C.ar    1  UNL1        0.0420
     17 C          63.3407   82.4895   14.4742 C.2     1  UNL1        0.2375
     18 N          61.9654   82.0116   14.8352 N.am    1  UNL1       -0.3275
     19 O          64.4910   81.5269   14.4660 O.2     1  UNL1       -0.2736
     20 H          61.2103   82.6433   14.8406 H       1  UNL1        0.1450
     21 H          61.8178   81.0661   15.0667 H       1  UNL1        0.1450
     22 C          64.2559   88.8700   14.0906 C.2     1  UNL1        0.2633
     23 O          63.4437   88.8127   12.8308 O.2     1  UNL1       -0.2685
     24 N          64.6081   87.6040   14.8141 N.am    1  UNL1       -0.2995
     25 H          65.1411   87.6416   15.6409 H       1  UNL1        0.1498
     26 C          65.9264   92.2792   14.8981 C.ar    1  UNL1        0.0802
     27 C          65.7995   91.0519   14.0453 C.ar    1  UNL1        0.0398
     28 C          64.7159   90.1932   14.6270 C.ar    1  UNL1        0.1322
     29 N          64.1730   90.8899   15.8393 N.ar    1  UNL1       -0.2468
     30 N          64.9210   92.1791   16.0069 N.ar    1  UNL1       -0.1736
     31 C          68.1530   93.4823   15.4852 C.3     1  UNL1        0.0068
     32 C          66.8893   93.4085   14.6803 C.3     1  UNL1        0.0476
     33 C          63.0748   90.3858   16.7281 C.3     1  UNL1        0.1277
     34 C          63.0353   88.9398   17.1250 C.3     1  UNL1        0.0284
@<TRIPOS>BOND
     1    31    32    1
     2    32    26    1
     3    26    27   ar
     4    27    28   ar
     5    28    22    1
     6    22    23    2
     7    22    24   am
     8     1    24    1
     9     1     2    1
    10     2     3    1
    11     3    17    1
    12    17    18   am
    13    17    19    2
    14     3     4    1
    15     4     5   am
    16     5     6    2
    17     5     8    1
    18     8     9   ar
    19     9    10   ar
    20    10    11   ar
    21    11    12   ar
    22    12    13   ar
    23    13    14   ar
    24    14    15   ar
    25    15    16   ar
    26     4     7    1
    27    28    29   ar
    28    29    33    1
    29    33    34    1
    30    29    30   ar
    31    30    26   ar
    32     7     1    1
    33    16     8   ar
    34    16    11   ar
    35    24    25    1
    36    18    20    1
    37    18    21    1
@<TRIPOS>MOLECULE
*****
 34 37 0 0 0
SMALL
GASTEIGER

@<TRIPOS>ATOM
      1 C          63.3072   89.6587   12.7789 C.3     1  UNL1        0.0938
      2 C          61.9546   90.2703   12.9940 C.3     1  UNL1        0.0505
      3 C          60.9558   89.4749   12.2068 C.3     1  UNL1        0.1535
      4 N          61.6911   88.3717   11.5052 N.am    1  UNL1       -0.2676
      5 C          61.0804   87.3366   10.6075 C.2     1  UNL1        0.2526
      6 O          59.6037   87.3488   10.3450 O.2     1  UNL1       -0.2698
      7 C          63.1444   88.4853   11.8588 C.3     1  UNL1        0.1136
      8 C          61.9465   86.2894    9.9725 C.ar    1  UNL1        0.0940
      9 C          62.2823   86.1887    8.5140 C.ar    1  UNL1        0.1840
     10 O          63.1722   84.9962    8.3246 O.2     1  UNL1       -0.4503
     11 C          63.3865   84.3599    9.6659 C.ar    1  UNL1        0.1456
     12 C          64.1735   83.1560   10.0915 C.ar    1  UNL1        0.0375
     13 C          64.2030   82.7514   11.5356 C.ar    1  UNL1        0.0031
     14 C          63.4455   83.5507   12.5541 C.ar    1  UNL1        0.0002
     15 C          62.6585   84.7546   12.1285 C.ar    1  UNL1        0.0033
     16 C          62.6290   85.1592   10.6844 C.ar    1  UNL1        0.0420
     17 C          59.4806   89.7366   12.1340 C.2     1  UNL1        0.2375
     18 N          58.9696   90.9591   11.4308 N.am    1  UNL1       -0.3275
     19 O          58.5164   88.7759   12.7643 O.2     1  UNL1       -0.2736
     20 H          59.6025   91.5897   11.0171 H       1  UNL1        0.1450
     21 H          58.0014   91.1309   11.3830 H       1  UNL1        0.1450
     22 C          65.2348   91.3980   12.8772 C.2     1  UNL1        0.2633
     23 O          64.5840   92.1814   11.7760 O.2     1  UNL1       -0.2685
     24 N          64.5964   90.1365   13.3787 N.am    1  UNL1       -0.2995
     25 H          65.0235   89.6223   14.1014 H       1  UNL1        0.1498
     26 C          68.1565   92.7440   15.0491 C.ar    1  UNL1        0.0802
     27 C          66.7134   92.3718   14.8799 C.ar    1  UNL1        0.0398
     28 C          66.5239   91.8758   13.4770 C.ar    1  UNL1        0.1322
     29 N          67.8501   91.9414   12.7792 N.ar    1  UNL1       -0.2468
     30 N          68.8590   92.4780   13.7507 N.ar    1  UNL1       -0.1736
     31 C          69.6830   94.4873   16.2241 C.3     1  UNL1        0.0068
     32 C          68.7865   93.2869   16.2974 C.3     1  UNL1        0.0476
     33 C          68.1199   91.5408   11.3591 C.3     1  UNL1        0.1277
     34 C          67.7003   92.4394   10.2337 C.3     1  UNL1        0.0284
@<TRIPOS>BOND
     1    31    32    1
     2    32    26    1
     3    26    27   ar
     4    27    28   ar
     5    28    22    1
     6    22    23    2
     7    22    24   am
     8     1    24    1
     9     1     2    1
    10     2     3    1
    11     3    17    1
    12    17    18   am
    13    17    19    2
    14     3     4    1
    15     4     5   am
    16     5     6    2
    17     5     8    1
    18     8     9   ar
    19     9    10   ar
    20    10    11   ar
    21    11    12   ar
    22    12    13   ar
    23    13    14   ar
    24    14    15   ar
    25    15    16   ar
    26     4     7    1
    27    28    29   ar
    28    29    33    1
    29    33    34    1
    30    29    30   ar
    31    30    26   ar
    32     7     1    1
    33    16     8   ar
    34    16    11   ar
    35    24    25    1
    36    18    20    1
    37    18    21    1
@<TRIPOS>MOLECULE
*****
 34 37 0 0 0
SMALL
GASTEIGER

@<TRIPOS>ATOM
      1 C          63.7985   90.8560   12.1970 C.3     1  UNL1        0.0938
      2 C          64.0914   90.6016   13.6459 C.3     1  UNL1        0.0505
      3 C          65.0322   91.6681   14.1228 C.3     1  UNL1        0.1535
      4 N          65.3207   92.5816   12.9686 N.am    1  UNL1       -0.2676
      5 C          66.2148   93.7858   12.9993 C.2     1  UNL1        0.2526
      6 O          66.9155   94.1674   14.2694 O.2     1  UNL1       -0.2698
      7 C          64.5582   92.0798   11.7784 C.3     1  UNL1        0.1136
      8 C          66.4081   94.6081   11.7598 C.ar    1  UNL1        0.0940
      9 C          65.9524   96.0233   11.5607 C.ar    1  UNL1        0.1840
     10 O          66.3537   96.4494   10.1796 O.2     1  UNL1       -0.4503
     11 C          67.0575   95.2977    9.5252 C.ar    1  UNL1        0.1456
     12 C          67.6720   95.1381    8.1662 C.ar    1  UNL1        0.0375
     13 C          68.3201   93.8406    7.7839 C.ar    1  UNL1        0.0031
     14 C          68.3537   92.7026    8.7605 C.ar    1  UNL1        0.0002
     15 C          67.7392   92.8621   10.1195 C.ar    1  UNL1        0.0033
     16 C          67.0911   94.1597   10.5018 C.ar    1  UNL1        0.0420
     17 C          65.5871   91.7982   15.5103 C.2     1  UNL1        0.2375
     18 N          64.6617   92.0130   16.6711 N.am    1  UNL1       -0.3275
     19 O          67.0675   91.7135   15.7370 O.2     1  UNL1       -0.2736
     20 H          63.6901   92.0686   16.5223 H       1  UNL1        0.1450
     21 H          65.0259   92.0984   17.5818 H       1  UNL1        0.1450
     22 C          62.7262   88.5674   11.5949 C.2     1  UNL1        0.2633
     23 O          63.4449   87.9279   12.7457 O.2     1  UNL1       -0.2685
     24 N          62.9030   90.0315   11.3205 N.am    1  UNL1       -0.2995
     25 H          62.4313   90.4512   10.5652 H       1  UNL1        0.1498
     26 C          60.2472   87.0923    8.9980 C.ar    1  UNL1        0.0802
     27 C          60.9718   88.2585    9.6019 C.ar    1  UNL1        0.0398
     28 C          61.8307   87.7429   10.7183 C.ar    1  UNL1        0.1322
     29 N          61.6370   86.2580   10.8044 N.ar    1  UNL1       -0.2468
     30 N          60.6584   85.8558    9.7412 N.ar    1  UNL1       -0.1736
     31 C          59.0681   88.4420    7.1171 C.3     1  UNL1        0.0068
     32 C          59.2811   87.1519    7.8521 C.3     1  UNL1        0.0476
     33 C          62.3047   85.3369   11.7820 C.3     1  UNL1        0.1277
     34 C          63.2664   84.2944   11.2938 C.3     1  UNL1        0.0284
@<TRIPOS>BOND
     1    31    32    1
     2    32    26    1
     3    26    27   ar
     4    27    28   ar
     5    28    22    1
     6    22    23    2
     7    22    24   am
     8     1    24    1
     9     1     2    1
    10     2     3    1
    11     3    17    1
    12    17    18   am
    13    17    19    2
    14     3     4    1
    15     4     5   am
    16     5     6    2
    17     5     8    1
    18     8     9   ar
    19     9    10   ar
    20    10    11   ar
    21    11    12   ar
    22    12    13   ar
    23    13    14   ar
    24    14    15   ar
    25    15    16   ar
    26     4     7    1
    27    28    29   ar
    28    29    33    1
    29    33    34    1
    30    29    30   ar
    31    30    26   ar
    32     7     1    1
    33    16     8   ar
    34    16    11   ar
    35    24    25    1
    36    18    20    1
    37    18    21    1
