@<TRIPOS>MOLECULE
*****
 41 45 0 0 0
SMALL
GASTEIGER

@<TRIPOS>ATOM
      1 C          63.1698   86.4219   14.1624 C.ar    1  UNL1        0.2218
      2 N          64.0614   87.0249   15.2071 N.ar    1  UNL1       -0.2119
      3 C          64.6285   88.3991   15.0068 C.ar    1  UNL1        0.1066
      4 C          64.3038   89.1702   13.7617 C.ar    1  UNL1        0.0744
      5 C          63.4123   88.5671   12.7171 C.ar    1  UNL1        0.1348
      6 N          62.8452   87.1930   12.9174 N.ar    1  UNL1       -0.1987
      7 C          64.8709   90.5444   13.5613 C.ar    1  UNL1        0.1149
      8 N          65.1866   91.1842   12.2419 N.ar    1  UNL1       -0.2382
      9 C          65.7326   92.5552   12.5103 C.ar    1  UNL1        0.0883
     10 C          65.7543   92.7628   13.9957 C.ar    1  UNL1        0.0560
     11 S          65.2218   91.5200   14.6453 S.2     1  UNL1       -0.0658
     12 C          66.1785   93.5449   11.4751 C.ar    1  UNL1        0.0182
     13 C          66.0556   95.0159   11.7419 C.ar    1  UNL1        0.0015
     14 C          66.5015   96.0056   10.7067 C.ar    1  UNL1        0.0000
     15 C          67.0703   95.5243    9.4048 C.ar    1  UNL1        0.0000
     16 C          67.1932   94.0534    9.1381 C.ar    1  UNL1        0.0000
     17 C          66.7472   93.0637   10.1733 C.ar    1  UNL1        0.0015
     18 N          62.6028   85.0477   14.3627 N.pl3   1  UNL1       -0.2824
     19 H          62.1019   84.8367   15.1836 H       1  UNL1        0.1551
     20 C          62.5025   80.0569   12.9197 C.3     1  UNL1        0.0521
     21 C          62.7487   81.4996   12.5908 C.ar    1  UNL1        0.0602
     22 C          62.5526   82.5523   13.6412 C.ar    1  UNL1        0.0294
     23 C          62.7989   83.9949   13.3123 C.ar    1  UNL1        0.0528
     24 C          63.2412   84.3849   11.9331 C.ar    1  UNL1        0.0294
     25 C          63.4373   83.3321   10.8827 C.ar    1  UNL1        0.0602
     26 C          63.8797   83.7220    9.5034 C.3     1  UNL1        0.0521
     27 N          63.1911   81.8895   11.2116 N.ar    1  UNL1       -0.2539
     28 N          63.0876   89.3382   11.4720 N.pl3   1  UNL1       -0.3172
     29 H          63.4631   90.2385   11.3386 H       1  UNL1        0.1482
     30 C          62.1910   88.7376   10.4302 C.3     1  UNL1        0.0998
     31 C          62.3282   87.3691    9.8316 C.3     1  UNL1        0.0271
     32 C          61.2218   87.1858    8.8355 C.3     1  UNL1        0.0604
     33 C          60.4008   88.4411    8.8185 C.3     1  UNL1        0.1412
     34 O          59.1928   88.6930    7.9657 O.3     1  UNL1       -0.3818
     35 C          60.9998   89.4001    9.8041 C.3     1  UNL1        0.1549
     36 O          60.4960   90.7795   10.1098 O.3     1  UNL1       -0.3803
     37 H          59.0161   87.9130    7.4169 H       1  UNL1        0.2104
     38 H          59.7129   90.9651    9.5684 H       1  UNL1        0.2105
     39 C          60.9790   85.9621    8.0027 C.3     1  UNL1        0.1396
     40 O          59.6363   85.7379    7.3727 O.3     1  UNL1       -0.3819
     41 H          58.9732   85.5963    8.0664 H       1  UNL1        0.2104
@<TRIPOS>BOND
     1    20    21    1
     2    21    22   ar
     3    22    23   ar
     4    23    18    1
     5    18     1    1
     6     1     2   ar
     7     2     3   ar
     8     3     4   ar
     9     4     7    1
    10     7     8   ar
    11     8     9   ar
    12     9    12    1
    13    12    13   ar
    14    13    14   ar
    15    14    15   ar
    16    15    16   ar
    17    16    17   ar
    18     9    10   ar
    19    10    11   ar
    20     4     5   ar
    21     5    28    1
    22    30    28    1
    23    30    31    1
    24    31    32    1
    25    32    39    1
    26    39    40    1
    27    32    33    1
    28    33    34    1
    29    33    35    1
    30    35    36    1
    31     5     6   ar
    32    23    24   ar
    33    24    25   ar
    34    25    26    1
    35    25    27   ar
    36    27    21   ar
    37     6     1   ar
    38    11     7   ar
    39    35    30    1
    40    17    12   ar
    41    18    19    1
    42    28    29    1
    43    40    41    1
    44    34    37    1
    45    36    38    1
@<TRIPOS>MOLECULE
*****
 41 45 0 0 0
SMALL
GASTEIGER

@<TRIPOS>ATOM
      1 C          62.9197   86.2402   14.2406 C.ar    1  UNL1        0.2218
      2 N          63.7081   86.8599   15.3561 N.ar    1  UNL1       -0.2119
      3 C          64.3380   88.2085   15.1702 C.ar    1  UNL1        0.1066
      4 C          64.1794   88.9374   13.8688 C.ar    1  UNL1        0.0744
      5 C          63.3910   88.3176   12.7533 C.ar    1  UNL1        0.1348
      6 N          62.7611   86.9690   12.9392 N.ar    1  UNL1       -0.1987
      7 C          64.8093   90.2859   13.6828 C.ar    1  UNL1        0.1149
      8 N          65.1541   90.9246   12.3701 N.ar    1  UNL1       -0.2382
      9 C          65.7629   92.2660   12.6530 C.ar    1  UNL1        0.0883
     10 C          65.7943   92.4564   14.1405 C.ar    1  UNL1        0.0560
     11 S          65.2049   91.2327   14.7770 S.2     1  UNL1       -0.0658
     12 C          66.2540   93.2451   11.6282 C.ar    1  UNL1        0.0182
     13 C          66.9340   92.7521   10.3854 C.ar    1  UNL1        0.0015
     14 C          67.4251   93.7312    9.3606 C.ar    1  UNL1        0.0000
     15 C          67.2362   95.2032    9.5786 C.ar    1  UNL1        0.0000
     16 C          66.5562   95.6961   10.8214 C.ar    1  UNL1        0.0000
     17 C          66.0651   94.7170   11.8462 C.ar    1  UNL1        0.0015
     18 N          62.2898   84.8916   14.4265 N.pl3   1  UNL1       -0.2824
     19 H          61.6161   84.7559   15.1315 H       1  UNL1        0.1551
     20 C          64.6461   83.1303   10.1433 C.3     1  UNL1        0.0521
     21 C          63.8645   82.8691   11.3966 C.ar    1  UNL1        0.0602
     22 C          63.4679   84.0109   12.2849 C.ar    1  UNL1        0.0294
     23 C          62.6863   83.7497   13.5382 C.ar    1  UNL1        0.0528
     24 C          62.3013   82.3467   13.9033 C.ar    1  UNL1        0.0294
     25 C          62.6978   81.2050   13.0151 C.ar    1  UNL1        0.0602
     26 C          62.3128   79.8019   13.3802 C.3     1  UNL1        0.0521
     27 N          63.4794   81.4662   11.7617 N.ar    1  UNL1       -0.2539
     28 N          63.2325   89.0464   11.4518 N.pl3   1  UNL1       -0.3172
     29 H          63.7911   89.8334   11.2571 H       1  UNL1        0.1482
     30 C          62.2228   88.5763   10.4471 C.3     1  UNL1        0.0998
     31 C          61.2067   89.4326    9.7512 C.3     1  UNL1        0.0271
     32 C          60.4078   88.5529    8.8359 C.3     1  UNL1        0.0604
     33 C          60.9303   87.1528    8.9661 C.3     1  UNL1        0.1412
     34 O          60.4205   85.9494    8.2298 O.3     1  UNL1       -0.3818
     35 C          62.0520   87.1673    9.9619 C.3     1  UNL1        0.1549
     36 O          62.8608   85.9810   10.3961 O.3     1  UNL1       -0.3803
     37 H          59.6911   86.2121    7.6468 H       1  UNL1        0.2104
     38 H          62.5481   85.1890    9.9317 H       1  UNL1        0.2105
     39 C          59.2839   88.9954    7.9466 C.3     1  UNL1        0.1396
     40 O          58.3375   87.9825    7.3736 O.3     1  UNL1       -0.3819
     41 H          58.8153   87.4062    6.7567 H       1  UNL1        0.2104
@<TRIPOS>BOND
     1    20    21    1
     2    21    22   ar
     3    22    23   ar
     4    23    18    1
     5    18     1    1
     6     1     2   ar
     7     2     3   ar
     8     3     4   ar
     9     4     7    1
    10     7     8   ar
    11     8     9   ar
    12     9    12    1
    13    12    13   ar
    14    13    14   ar
    15    14    15   ar
    16    15    16   ar
    17    16    17   ar
    18     9    10   ar
    19    10    11   ar
    20     4     5   ar
    21     5    28    1
    22    30    28    1
    23    30    31    1
    24    31    32    1
    25    32    39    1
    26    39    40    1
    27    32    33    1
    28    33    34    1
    29    33    35    1
    30    35    36    1
    31     5     6   ar
    32    23    24   ar
    33    24    25   ar
    34    25    26    1
    35    25    27   ar
    36    27    21   ar
    37     6     1   ar
    38    11     7   ar
    39    35    30    1
    40    17    12   ar
    41    18    19    1
    42    28    29    1
    43    40    41    1
    44    34    37    1
    45    36    38    1
@<TRIPOS>MOLECULE
*****
 41 45 0 0 0
SMALL
GASTEIGER

@<TRIPOS>ATOM
      1 C          62.9579   84.5315   15.3913 C.ar    1  UNL1        0.2218
      2 N          62.9930   85.3064   16.6752 N.ar    1  UNL1       -0.2119
      3 C          63.2966   86.7753   16.6566 C.ar    1  UNL1        0.1066
      4 C          63.5651   87.4692   15.3541 C.ar    1  UNL1        0.0744
      5 C          63.5299   86.6943   14.0702 C.ar    1  UNL1        0.1348
      6 N          63.2263   85.2255   14.0888 N.ar    1  UNL1       -0.1987
      7 C          63.8687   88.9380   15.3355 C.ar    1  UNL1        0.1149
      8 N          64.5736   89.6788   14.2381 N.ar    1  UNL1       -0.2382
      9 C          64.6613   91.1226   14.6353 C.ar    1  UNL1        0.0883
     10 C          64.0106   91.2741   15.9783 C.ar    1  UNL1        0.0560
     11 S          63.5208   89.9240   16.4110 S.2     1  UNL1       -0.0658
     12 C          65.2894   92.2218   13.8309 C.ar    1  UNL1        0.0182
     13 C          65.0428   92.3050   12.3536 C.ar    1  UNL1        0.0015
     14 C          65.6709   93.4042   11.5492 C.ar    1  UNL1        0.0000
     15 C          66.5456   94.4202   12.2219 C.ar    1  UNL1        0.0000
     16 C          66.7922   94.3370   13.6992 C.ar    1  UNL1        0.0000
     17 C          66.1641   93.2378   14.5036 C.ar    1  UNL1        0.0015
     18 N          62.6542   83.0627   15.4099 N.pl3   1  UNL1       -0.2824
     19 H          62.3674   82.6299   16.2463 H       1  UNL1        0.1551
     20 C          62.0724   78.5666   12.8709 C.3     1  UNL1        0.0521
     21 C          62.4968   80.0052   12.8845 C.ar    1  UNL1        0.0602
     22 C          62.3633   80.8146   14.1403 C.ar    1  UNL1        0.0294
     23 C          62.7877   82.2533   14.1540 C.ar    1  UNL1        0.0528
     24 C          63.3455   82.8825   12.9119 C.ar    1  UNL1        0.0294
     25 C          63.4789   82.0731   11.6561 C.ar    1  UNL1        0.0602
     26 C          64.0367   82.7024   10.4139 C.3     1  UNL1        0.0521
     27 N          63.0546   80.6345   11.6424 N.ar    1  UNL1       -0.2539
     28 N          63.7984   87.3882   12.7677 N.pl3   1  UNL1       -0.3172
     29 H          64.7040   87.7148   12.5615 H       1  UNL1        0.1482
     30 C          62.6872   87.5844   11.7795 C.3     1  UNL1        0.0998
     31 C          62.2057   86.5731   10.7818 C.3     1  UNL1        0.0271
     32 C          61.0833   87.1901   10.0011 C.3     1  UNL1        0.0604
     33 C          60.8711   88.5828   10.5164 C.3     1  UNL1        0.1412
     34 O          59.8473   89.5602   10.0197 O.3     1  UNL1       -0.3818
     35 C          61.8623   88.8265   11.6155 C.3     1  UNL1        0.1549
     36 O          62.0038   90.0903   12.4108 O.3     1  UNL1       -0.3803
     37 H          59.3331   89.1542    9.3044 H       1  UNL1        0.2104
     38 H          61.3500   90.7389   12.1063 H       1  UNL1        0.2105
     39 C          60.3091   86.5303    8.8988 C.3     1  UNL1        0.1396
     40 O          58.9468   87.0390    8.5305 O.3     1  UNL1       -0.3819
     41 H          58.3358   86.8909    9.2691 H       1  UNL1        0.2104
@<TRIPOS>BOND
     1    20    21    1
     2    21    22   ar
     3    22    23   ar
     4    23    18    1
     5    18     1    1
     6     1     2   ar
     7     2     3   ar
     8     3     4   ar
     9     4     7    1
    10     7     8   ar
    11     8     9   ar
    12     9    12    1
    13    12    13   ar
    14    13    14   ar
    15    14    15   ar
    16    15    16   ar
    17    16    17   ar
    18     9    10   ar
    19    10    11   ar
    20     4     5   ar
    21     5    28    1
    22    30    28    1
    23    30    31    1
    24    31    32    1
    25    32    39    1
    26    39    40    1
    27    32    33    1
    28    33    34    1
    29    33    35    1
    30    35    36    1
    31     5     6   ar
    32    23    24   ar
    33    24    25   ar
    34    25    26    1
    35    25    27   ar
    36    27    21   ar
    37     6     1   ar
    38    11     7   ar
    39    35    30    1
    40    17    12   ar
    41    18    19    1
    42    28    29    1
    43    40    41    1
    44    34    37    1
    45    36    38    1
@<TRIPOS>MOLECULE
*****
 41 45 0 0 0
SMALL
GASTEIGER

@<TRIPOS>ATOM
      1 C          61.7734   88.1678   10.8425 C.ar    1  UNL1        0.2218
      2 N          61.7230   89.6668   10.8671 N.ar    1  UNL1       -0.2119
      3 C          62.4727   90.4251   11.9220 C.ar    1  UNL1        0.1066
      4 C          63.2728   89.6845   12.9522 C.ar    1  UNL1        0.0744
      5 C          63.3232   88.1856   12.9276 C.ar    1  UNL1        0.1348
      6 N          62.5734   87.4272   11.8727 N.ar    1  UNL1       -0.1987
      7 C          64.0226   90.4428   14.0071 C.ar    1  UNL1        0.1149
      8 N          65.3947   91.0312   13.8626 N.ar    1  UNL1       -0.2382
      9 C          65.7520   91.6980   15.1579 C.ar    1  UNL1        0.0883
     10 C          64.6006   91.5217   16.1030 C.ar    1  UNL1        0.0560
     11 S          63.5318   90.7460   15.3918 S.2     1  UNL1       -0.0658
     12 C          67.0353   92.4151   15.4558 C.ar    1  UNL1        0.0182
     13 C          67.1719   93.8735   15.1325 C.ar    1  UNL1        0.0015
     14 C          68.4553   94.5907   15.4304 C.ar    1  UNL1        0.0000
     15 C          69.6019   93.8495   16.0516 C.ar    1  UNL1        0.0000
     16 C          69.4652   92.3911   16.3749 C.ar    1  UNL1        0.0000
     17 C          68.1819   91.6740   16.0770 C.ar    1  UNL1        0.0015
     18 N          61.0236   87.4094    9.7876 N.pl3   1  UNL1       -0.2824
     19 H          60.1089   87.6795    9.5435 H       1  UNL1        0.1551
     20 C          61.6718   84.4693    5.5525 C.3     1  UNL1        0.0521
     21 C          61.9917   84.7694    6.9870 C.ar    1  UNL1        0.0602
     22 C          61.3477   85.9393    7.6701 C.ar    1  UNL1        0.0294
     23 C          61.6676   86.2395    9.1045 C.ar    1  UNL1        0.0528
     24 C          62.6314   85.3697    9.8558 C.ar    1  UNL1        0.0294
     25 C          63.2754   84.1998    9.1727 C.ar    1  UNL1        0.0602
     26 C          64.2393   83.3300    9.9241 C.3     1  UNL1        0.0521
     27 N          62.9555   83.8997    7.7383 N.ar    1  UNL1       -0.2539
     28 N          64.1233   87.4449   13.9578 N.pl3   1  UNL1       -0.3172
     29 H          64.8042   87.9197   14.4870 H       1  UNL1        0.1482
     30 C          63.8858   85.9809   14.1817 C.3     1  UNL1        0.0998
     31 C          64.2776   84.8717   13.2510 C.3     1  UNL1        0.0271
     32 C          63.8488   83.5742   13.8697 C.3     1  UNL1        0.0604
     33 C          63.1920   83.8816   15.1828 C.3     1  UNL1        0.1412
     34 O          62.6138   82.8778   16.1358 O.3     1  UNL1       -0.3818
     35 C          63.2149   85.3690   15.3756 C.3     1  UNL1        0.1549
     36 O          62.6636   86.1137   16.5552 O.3     1  UNL1       -0.3803
     37 H          62.7281   81.9852   15.7738 H       1  UNL1        0.2104
     38 H          62.2833   85.4832   17.1867 H       1  UNL1        0.2105
     39 C          64.0428   82.2091   13.2791 C.3     1  UNL1        0.1396
     40 O          63.6130   80.9928   14.0445 O.3     1  UNL1       -0.3819
     41 H          64.1578   80.9034   14.8421 H       1  UNL1        0.2104
@<TRIPOS>BOND
     1    20    21    1
     2    21    22   ar
     3    22    23   ar
     4    23    18    1
     5    18     1    1
     6     1     2   ar
     7     2     3   ar
     8     3     4   ar
     9     4     7    1
    10     7     8   ar
    11     8     9   ar
    12     9    12    1
    13    12    13   ar
    14    13    14   ar
    15    14    15   ar
    16    15    16   ar
    17    16    17   ar
    18     9    10   ar
    19    10    11   ar
    20     4     5   ar
    21     5    28    1
    22    30    28    1
    23    30    31    1
    24    31    32    1
    25    32    39    1
    26    39    40    1
    27    32    33    1
    28    33    34    1
    29    33    35    1
    30    35    36    1
    31     5     6   ar
    32    23    24   ar
    33    24    25   ar
    34    25    26    1
    35    25    27   ar
    36    27    21   ar
    37     6     1   ar
    38    11     7   ar
    39    35    30    1
    40    17    12   ar
    41    18    19    1
    42    28    29    1
    43    40    41    1
    44    34    37    1
    45    36    38    1
@<TRIPOS>MOLECULE
*****
 41 45 0 0 0
SMALL
GASTEIGER

@<TRIPOS>ATOM
      1 C          63.0859   85.0200   15.2049 C.ar    1  UNL1        0.2218
      2 N          63.3543   85.8684   16.4126 N.ar    1  UNL1       -0.2119
      3 C          63.7010   87.3185   16.2485 C.ar    1  UNL1        0.1066
      4 C          63.7792   87.9203   14.8766 C.ar    1  UNL1        0.0744
      5 C          63.5108   87.0720   13.6691 C.ar    1  UNL1        0.1348
      6 N          63.1642   85.6219   13.8332 N.ar    1  UNL1       -0.1987
      7 C          64.1258   89.3705   14.7125 C.ar    1  UNL1        0.1149
      8 N          64.6351   90.0189   13.4595 N.ar    1  UNL1       -0.2382
      9 C          64.8481   91.4760   13.7451 C.ar    1  UNL1        0.0883
     10 C          64.4704   91.7281   15.1747 C.ar    1  UNL1        0.0560
     11 S          64.0240   90.4268   15.7726 S.2     1  UNL1       -0.0658
     12 C          65.3505   92.5010   12.7720 C.ar    1  UNL1        0.0182
     13 C          66.0825   93.7120   13.2696 C.ar    1  UNL1        0.0015
     14 C          66.5849   94.7370   12.2965 C.ar    1  UNL1        0.0000
     15 C          66.3554   94.5509   10.8259 C.ar    1  UNL1        0.0000
     16 C          65.6235   93.3399   10.3284 C.ar    1  UNL1        0.0000
     17 C          65.1210   92.3149   11.3015 C.ar    1  UNL1        0.0015
     18 N          62.7393   83.5699   15.3691 N.pl3   1  UNL1       -0.2824
     19 H          62.4553   83.2280   16.2475 H       1  UNL1        0.1551
     20 C          61.9155   78.8919   13.2625 C.3     1  UNL1        0.0521
     21 C          62.4135   80.3016   13.1415 C.ar    1  UNL1        0.0602
     22 C          62.3274   81.2309   14.3158 C.ar    1  UNL1        0.0294
     23 C          62.8254   82.6406   14.1947 C.ar    1  UNL1        0.0528
     24 C          63.4095   83.1211   12.8993 C.ar    1  UNL1        0.0294
     25 C          63.4956   82.1918   11.7251 C.ar    1  UNL1        0.0602
     26 C          64.0797   82.6722   10.4296 C.3     1  UNL1        0.0521
     27 N          62.9976   80.7820   11.8461 N.ar    1  UNL1       -0.2539
     28 N          63.5890   87.6738   12.2973 N.pl3   1  UNL1       -0.3172
     29 H          64.4634   87.7906   11.8601 H       1  UNL1        0.1482
     30 C          62.3351   88.0976   11.5916 C.3     1  UNL1        0.0998
     31 C          61.7261   89.4681   11.6225 C.3     1  UNL1        0.0271
     32 C          60.4846   89.4428   10.7811 C.3     1  UNL1        0.0604
     33 C          60.3263   88.0567   10.2301 C.3     1  UNL1        0.1412
     34 O          59.2188   87.5848    9.3353 O.3     1  UNL1       -0.3818
     35 C          61.4700   87.2253   10.7310 C.3     1  UNL1        0.1549
     36 O          61.7068   85.7761   10.4250 O.3     1  UNL1       -0.3803
     37 H          58.6088   88.3186    9.1613 H       1  UNL1        0.2104
     38 H          61.0009   85.4483    9.8461 H       1  UNL1        0.2105
     39 C          59.5633   90.6004   10.5340 C.3     1  UNL1        0.1396
     40 O          58.8178   91.2229   11.6772 O.3     1  UNL1       -0.3819
     41 H          58.1826   90.5834   12.0355 H       1  UNL1        0.2104
@<TRIPOS>BOND
     1    20    21    1
     2    21    22   ar
     3    22    23   ar
     4    23    18    1
     5    18     1    1
     6     1     2   ar
     7     2     3   ar
     8     3     4   ar
     9     4     7    1
    10     7     8   ar
    11     8     9   ar
    12     9    12    1
    13    12    13   ar
    14    13    14   ar
    15    14    15   ar
    16    15    16   ar
    17    16    17   ar
    18     9    10   ar
    19    10    11   ar
    20     4     5   ar
    21     5    28    1
    22    30    28    1
    23    30    31    1
    24    31    32    1
    25    32    39    1
    26    39    40    1
    27    32    33    1
    28    33    34    1
    29    33    35    1
    30    35    36    1
    31     5     6   ar
    32    23    24   ar
    33    24    25   ar
    34    25    26    1
    35    25    27   ar
    36    27    21   ar
    37     6     1   ar
    38    11     7   ar
    39    35    30    1
    40    17    12   ar
    41    18    19    1
    42    28    29    1
    43    40    41    1
    44    34    37    1
    45    36    38    1
@<TRIPOS>MOLECULE
*****
 41 45 0 0 0
SMALL
GASTEIGER

@<TRIPOS>ATOM
      1 C          59.7035   89.6752    7.1533 C.ar    1  UNL1        0.2218
      2 N          59.9972   88.2837    6.6762 N.ar    1  UNL1       -0.2119
      3 C          60.5996   87.2805    7.6146 C.ar    1  UNL1        0.1066
      4 C          60.9082   87.6688    9.0303 C.ar    1  UNL1        0.0744
      5 C          60.6146   89.0602    9.5074 C.ar    1  UNL1        0.1348
      6 N          60.0122   90.0634    8.5689 N.ar    1  UNL1       -0.1987
      7 C          61.5106   86.6656    9.9688 C.ar    1  UNL1        0.1149
      8 N          61.8883   86.9123   11.3994 N.ar    1  UNL1       -0.2382
      9 C          62.4522   85.6388   11.9562 C.ar    1  UNL1        0.0883
     10 C          62.4231   84.6049   10.8698 C.ar    1  UNL1        0.0560
     11 S          61.8412   85.2396    9.6415 S.2     1  UNL1       -0.0658
     12 C          62.9566   85.4349   13.3541 C.ar    1  UNL1        0.0182
     13 C          62.4685   84.2713   14.1652 C.ar    1  UNL1        0.0015
     14 C          62.9730   84.0674   15.5630 C.ar    1  UNL1        0.0000
     15 C          63.9654   85.0271   16.1497 C.ar    1  UNL1        0.0000
     16 C          64.4534   86.1906   15.3385 C.ar    1  UNL1        0.0000
     17 C          63.9490   86.3945   13.9407 C.ar    1  UNL1        0.0015
     18 N          59.1011   90.6783    6.2148 N.pl3   1  UNL1       -0.2824
     19 H          58.1704   90.9735    6.3410 H       1  UNL1        0.1551
     20 C          63.4903   90.7246    3.4340 C.3     1  UNL1        0.0521
     21 C          62.1114   91.2548    3.6937 C.ar    1  UNL1        0.0602
     22 C          61.2957   90.7015    4.8244 C.ar    1  UNL1        0.0294
     23 C          59.9168   91.2317    5.0841 C.ar    1  UNL1        0.0528
     24 C          59.3536   92.3153    4.2131 C.ar    1  UNL1        0.0294
     25 C          60.1692   92.8686    3.0825 C.ar    1  UNL1        0.0602
     26 C          59.6060   93.9522    2.2114 C.3     1  UNL1        0.0521
     27 N          61.5481   92.3384    2.8228 N.ar    1  UNL1       -0.2539
     28 N          60.9232   89.4485   10.9231 N.pl3   1  UNL1       -0.3172
     29 H          60.3189   89.1764   11.6511 H       1  UNL1        0.1482
     30 C          62.1526   90.2514   11.2295 C.3     1  UNL1        0.0998
     31 C          63.0026   90.9786   10.2300 C.3     1  UNL1        0.0271
     32 C          64.1232   91.6447   10.9720 C.3     1  UNL1        0.0604
     33 C          63.9658   91.3292   12.4300 C.3     1  UNL1        0.1412
     34 O          64.8679   91.7934   13.5349 O.3     1  UNL1       -0.3818
     35 C          62.7479   90.4681   12.5891 C.3     1  UNL1        0.1549
     36 O          62.2184   89.9200   13.8810 O.3     1  UNL1       -0.3803
     37 H          65.5805   92.3368   13.1638 H       1  UNL1        0.2104
     38 H          62.7874   90.2080   14.6119 H       1  UNL1        0.2105
     39 C          65.2103   92.4797   10.3629 C.3     1  UNL1        0.1396
     40 O          66.4659   92.7560   11.1357 O.3     1  UNL1       -0.3819
     41 H          66.2559   93.3021   11.9093 H       1  UNL1        0.2104
@<TRIPOS>BOND
     1    20    21    1
     2    21    22   ar
     3    22    23   ar
     4    23    18    1
     5    18     1    1
     6     1     2   ar
     7     2     3   ar
     8     3     4   ar
     9     4     7    1
    10     7     8   ar
    11     8     9   ar
    12     9    12    1
    13    12    13   ar
    14    13    14   ar
    15    14    15   ar
    16    15    16   ar
    17    16    17   ar
    18     9    10   ar
    19    10    11   ar
    20     4     5   ar
    21     5    28    1
    22    30    28    1
    23    30    31    1
    24    31    32    1
    25    32    39    1
    26    39    40    1
    27    32    33    1
    28    33    34    1
    29    33    35    1
    30    35    36    1
    31     5     6   ar
    32    23    24   ar
    33    24    25   ar
    34    25    26    1
    35    25    27   ar
    36    27    21   ar
    37     6     1   ar
    38    11     7   ar
    39    35    30    1
    40    17    12   ar
    41    18    19    1
    42    28    29    1
    43    40    41    1
    44    34    37    1
    45    36    38    1
@<TRIPOS>MOLECULE
*****
 41 45 0 0 0
SMALL
GASTEIGER

@<TRIPOS>ATOM
      1 C          61.6662   86.6043   11.2703 C.ar    1  UNL1        0.2218
      2 N          60.8933   85.8948   10.1981 N.ar    1  UNL1       -0.2119
      3 C          60.3726   86.6601    9.0178 C.ar    1  UNL1        0.1066
      4 C          60.6248   88.1349    8.9096 C.ar    1  UNL1        0.0744
      5 C          61.3977   88.8442    9.9817 C.ar    1  UNL1        0.1348
      6 N          61.9184   88.0789   11.1620 N.ar    1  UNL1       -0.1987
      7 C          60.1041   88.9002    7.7292 C.ar    1  UNL1        0.1149
      8 N          60.9133   89.7772    6.8204 N.ar    1  UNL1       -0.2382
      9 C          59.9921   90.3419    5.7800 C.ar    1  UNL1        0.0883
     10 C          58.6136   89.8138    6.0457 C.ar    1  UNL1        0.0560
     11 S          58.6828   88.9228    7.2504 S.2     1  UNL1       -0.0658
     12 C          60.3812   91.2714    4.6689 C.ar    1  UNL1        0.0182
     13 C          61.7622   91.2076    4.0867 C.ar    1  UNL1        0.0015
     14 C          62.1513   92.1371    2.9756 C.ar    1  UNL1        0.0000
     15 C          61.1595   93.1304    2.4467 C.ar    1  UNL1        0.0000
     16 C          59.7785   93.1942    3.0289 C.ar    1  UNL1        0.0000
     17 C          59.3895   92.2646    4.1400 C.ar    1  UNL1        0.0015
     18 N          62.1869   85.8390   12.4506 N.pl3   1  UNL1       -0.2824
     19 H          62.2838   86.2853   13.3228 H       1  UNL1        0.1551
     20 C          62.0974   80.9615   14.2401 C.3     1  UNL1        0.0521
     21 C          62.5152   81.9550   13.1968 C.ar    1  UNL1        0.0602
     22 C          62.1422   83.4002   13.3453 C.ar    1  UNL1        0.0294
     23 C          62.5600   84.3937   12.3021 C.ar    1  UNL1        0.0528
     24 C          63.3509   83.9419   11.1103 C.ar    1  UNL1        0.0294
     25 C          63.7239   82.4967   10.9618 C.ar    1  UNL1        0.0602
     26 C          64.5149   82.0449    9.7700 C.3     1  UNL1        0.0521
     27 N          63.3061   81.5032   12.0051 N.ar    1  UNL1       -0.2539
     28 N          61.6499   90.3190    9.8735 N.pl3   1  UNL1       -0.3172
     29 H          61.0740   90.8762    9.3016 H       1  UNL1        0.1482
     30 C          62.7795   90.9447   10.6366 C.3     1  UNL1        0.0998
     31 C          63.8884   91.7688   10.0525 C.3     1  UNL1        0.0271
     32 C          64.7928   92.1896   11.1728 C.3     1  UNL1        0.0604
     33 C          64.2428   91.6255   12.4493 C.3     1  UNL1        0.1412
     34 O          64.8334   91.8001   13.8170 O.3     1  UNL1       -0.3818
     35 C          62.9985   90.8561   12.1179 C.3     1  UNL1        0.1549
     36 O          62.1264   90.1263   13.0961 O.3     1  UNL1       -0.3803
     37 H          65.6368   92.3402   13.7557 H       1  UNL1        0.2104
     38 H          62.4898   90.2255   13.9899 H       1  UNL1        0.2105
     39 C          66.0299   93.0273   11.0399 C.3     1  UNL1        0.1396
     40 O          67.0324   93.0666   12.1551 O.3     1  UNL1       -0.3819
     41 H          66.6342   93.4874   12.9331 H       1  UNL1        0.2104
@<TRIPOS>BOND
     1    20    21    1
     2    21    22   ar
     3    22    23   ar
     4    23    18    1
     5    18     1    1
     6     1     2   ar
     7     2     3   ar
     8     3     4   ar
     9     4     7    1
    10     7     8   ar
    11     8     9   ar
    12     9    12    1
    13    12    13   ar
    14    13    14   ar
    15    14    15   ar
    16    15    16   ar
    17    16    17   ar
    18     9    10   ar
    19    10    11   ar
    20     4     5   ar
    21     5    28    1
    22    30    28    1
    23    30    31    1
    24    31    32    1
    25    32    39    1
    26    39    40    1
    27    32    33    1
    28    33    34    1
    29    33    35    1
    30    35    36    1
    31     5     6   ar
    32    23    24   ar
    33    24    25   ar
    34    25    26    1
    35    25    27   ar
    36    27    21   ar
    37     6     1   ar
    38    11     7   ar
    39    35    30    1
    40    17    12   ar
    41    18    19    1
    42    28    29    1
    43    40    41    1
    44    34    37    1
    45    36    38    1
@<TRIPOS>MOLECULE
*****
 41 45 0 0 0
SMALL
GASTEIGER

@<TRIPOS>ATOM
      1 C          62.0590   88.5156   10.6956 C.ar    1  UNL1        0.2218
      2 N          62.3377   89.7705    9.9224 N.ar    1  UNL1       -0.2119
      3 C          63.2737   90.8021   10.4790 C.ar    1  UNL1        0.1066
      4 C          63.9309   90.5789   11.8088 C.ar    1  UNL1        0.0744
      5 C          63.6522   89.3241   12.5819 C.ar    1  UNL1        0.1348
      6 N          62.7162   88.2925   12.0254 N.ar    1  UNL1       -0.1987
      7 C          64.8668   91.6105   12.3654 C.ar    1  UNL1        0.1149
      8 N          65.7965   91.4221   13.5274 N.ar    1  UNL1       -0.2382
      9 C          66.5416   92.7068   13.7379 C.ar    1  UNL1        0.0883
     10 C          66.0725   93.6892   12.7059 C.ar    1  UNL1        0.0560
     11 S          65.0374   93.0116   11.8577 S.2     1  UNL1       -0.0658
     12 C          67.5746   92.9640   14.7947 C.ar    1  UNL1        0.0182
     13 C          68.1548   91.8188   15.5706 C.ar    1  UNL1        0.0015
     14 C          69.1877   92.0760   16.6275 C.ar    1  UNL1        0.0000
     15 C          69.6404   93.4782   16.9083 C.ar    1  UNL1        0.0000
     16 C          69.0602   94.6233   16.1324 C.ar    1  UNL1        0.0000
     17 C          68.0273   94.3661   15.0755 C.ar    1  UNL1        0.0015
     18 N          61.1231   87.4840   10.1390 N.pl3   1  UNL1       -0.2824
     19 H          60.1503   87.5949   10.2425 H       1  UNL1        0.1551
     20 C          61.4494   84.5572    5.8579 C.3     1  UNL1        0.0521
     21 C          61.8324   84.8200    7.2842 C.ar    1  UNL1        0.0602
     22 C          61.2863   86.0206    7.9985 C.ar    1  UNL1        0.0294
     23 C          61.6693   86.2833    9.4248 C.ar    1  UNL1        0.0528
     24 C          62.5985   85.3455   10.1368 C.ar    1  UNL1        0.0294
     25 C          63.1446   84.1449    9.4225 C.ar    1  UNL1        0.0602
     26 C          64.0738   83.2069   10.1345 C.3     1  UNL1        0.0521
     27 N          62.7616   83.8821    7.9962 N.ar    1  UNL1       -0.2539
     28 N          64.3094   89.1009   13.9118 N.pl3   1  UNL1       -0.3172
     29 H          64.9223   89.7787   14.2779 H       1  UNL1        0.1482
     30 C          64.0326   87.8449   14.6837 C.3     1  UNL1        0.0998
     31 C          64.3141   86.4459   14.2217 C.3     1  UNL1        0.0271
     32 C          63.8813   85.5038   15.3057 C.3     1  UNL1        0.0604
     33 C          63.3323   86.3206   16.4377 C.3     1  UNL1        0.1412
     34 O          62.7857   85.7846   17.7277 O.3     1  UNL1       -0.3818
     35 C          63.4259   87.7675   16.0533 C.3     1  UNL1        0.1549
     36 O          62.9893   88.9324   16.8914 O.3     1  UNL1       -0.3803
     37 H          62.8395   84.8161   17.7240 H       1  UNL1        0.2104
     38 H          62.6313   88.6091   17.7330 H       1  UNL1        0.2105
     39 C          63.9800   84.0076   15.2648 C.3     1  UNL1        0.1396
     40 O          62.8446   83.1670   15.7690 O.3     1  UNL1       -0.3819
     41 H          62.7458   83.2971   16.7252 H       1  UNL1        0.2104
@<TRIPOS>BOND
     1    20    21    1
     2    21    22   ar
     3    22    23   ar
     4    23    18    1
     5    18     1    1
     6     1     2   ar
     7     2     3   ar
     8     3     4   ar
     9     4     7    1
    10     7     8   ar
    11     8     9   ar
    12     9    12    1
    13    12    13   ar
    14    13    14   ar
    15    14    15   ar
    16    15    16   ar
    17    16    17   ar
    18     9    10   ar
    19    10    11   ar
    20     4     5   ar
    21     5    28    1
    22    30    28    1
    23    30    31    1
    24    31    32    1
    25    32    39    1
    26    39    40    1
    27    32    33    1
    28    33    34    1
    29    33    35    1
    30    35    36    1
    31     5     6   ar
    32    23    24   ar
    33    24    25   ar
    34    25    26    1
    35    25    27   ar
    36    27    21   ar
    37     6     1   ar
    38    11     7   ar
    39    35    30    1
    40    17    12   ar
    41    18    19    1
    42    28    29    1
    43    40    41    1
    44    34    37    1
    45    36    38    1
@<TRIPOS>MOLECULE
*****
 41 45 0 0 0
SMALL
GASTEIGER

@<TRIPOS>ATOM
      1 C          60.3526   88.9396    8.6346 C.ar    1  UNL1        0.2218
      2 N          61.0161   90.2782    8.7687 N.ar    1  UNL1       -0.2119
      3 C          61.8106   90.6015    9.9992 C.ar    1  UNL1        0.1066
      4 C          61.9416   89.5863   11.0956 C.ar    1  UNL1        0.0744
      5 C          61.2781   88.2477   10.9616 C.ar    1  UNL1        0.1348
      6 N          60.4836   87.9244    9.7311 N.ar    1  UNL1       -0.1987
      7 C          62.7362   89.9096   12.3261 C.ar    1  UNL1        0.1149
      8 N          64.0064   90.7062   12.3714 N.ar    1  UNL1       -0.2382
      9 C          64.4553   90.7821   13.8007 C.ar    1  UNL1        0.0883
     10 C          63.4625   90.0325   14.6388 C.ar    1  UNL1        0.0560
     11 S          62.4000   89.4933   13.7274 S.2     1  UNL1       -0.0658
     12 C          65.6817   91.4843   14.3035 C.ar    1  UNL1        0.0182
     13 C          65.6890   92.0910   15.6754 C.ar    1  UNL1        0.0015
     14 C          66.9154   92.7932   16.1782 C.ar    1  UNL1        0.0000
     15 C          68.1343   92.8887   15.3093 C.ar    1  UNL1        0.0000
     16 C          68.1269   92.2820   13.9375 C.ar    1  UNL1        0.0000
     17 C          66.9006   91.5798   13.4347 C.ar    1  UNL1        0.0015
     18 N          59.5580   88.6162    7.4041 N.pl3   1  UNL1       -0.2824
     19 H          59.2193   87.7027    7.2629 H       1  UNL1        0.1551
     20 C          61.2609   91.9774    3.8261 C.3     1  UNL1        0.0521
     21 C          60.1310   91.3653    4.5999 C.ar    1  UNL1        0.0602
     22 C          60.4094   90.2968    5.6151 C.ar    1  UNL1        0.0294
     23 C          59.2795   89.6848    6.3889 C.ar    1  UNL1        0.0528
     24 C          57.8713   90.1412    6.1475 C.ar    1  UNL1        0.0294
     25 C          57.5928   91.2098    5.1323 C.ar    1  UNL1        0.0602
     26 C          56.1845   91.6663    4.8908 C.3     1  UNL1        0.0521
     27 N          58.7227   91.8218    4.3585 N.ar    1  UNL1       -0.2539
     28 N          61.4091   87.2325   12.0580 N.pl3   1  UNL1       -0.3172
     29 H          60.9239   87.3577   12.9054 H       1  UNL1        0.1482
     30 C          62.2795   86.0264   11.8634 C.3     1  UNL1        0.0998
     31 C          62.4777   85.2805   10.5772 C.3     1  UNL1        0.0271
     32 C          63.4252   84.1476   10.8396 C.3     1  UNL1        0.0604
     33 C          63.8124   84.1934   12.2881 C.3     1  UNL1        0.1412
     34 O          64.7442   83.2445   12.9820 O.3     1  UNL1       -0.3818
     35 C          63.1044   85.3545   12.9208 C.3     1  UNL1        0.1549
     36 O          63.2038   85.7707   14.3584 O.3     1  UNL1       -0.3803
     37 H          65.0659   82.5852   12.3474 H       1  UNL1        0.2104
     38 H          63.8028   85.1697   14.8283 H       1  UNL1        0.2105
     39 C          63.9016   83.1450    9.8308 C.3     1  UNL1        0.1396
     40 O          64.6630   81.9331   10.2797 O.3     1  UNL1       -0.3819
     41 H          65.5159   82.2066   10.6520 H       1  UNL1        0.2104
@<TRIPOS>BOND
     1    20    21    1
     2    21    22   ar
     3    22    23   ar
     4    23    18    1
     5    18     1    1
     6     1     2   ar
     7     2     3   ar
     8     3     4   ar
     9     4     7    1
    10     7     8   ar
    11     8     9   ar
    12     9    12    1
    13    12    13   ar
    14    13    14   ar
    15    14    15   ar
    16    15    16   ar
    17    16    17   ar
    18     9    10   ar
    19    10    11   ar
    20     4     5   ar
    21     5    28    1
    22    30    28    1
    23    30    31    1
    24    31    32    1
    25    32    39    1
    26    39    40    1
    27    32    33    1
    28    33    34    1
    29    33    35    1
    30    35    36    1
    31     5     6   ar
    32    23    24   ar
    33    24    25   ar
    34    25    26    1
    35    25    27   ar
    36    27    21   ar
    37     6     1   ar
    38    11     7   ar
    39    35    30    1
    40    17    12   ar
    41    18    19    1
    42    28    29    1
    43    40    41    1
    44    34    37    1
    45    36    38    1
