@<TRIPOS>MOLECULE
*****
 35 39 0 0 0
SMALL
GASTEIGER

@<TRIPOS>ATOM
      1 C          62.6047   89.0695   11.6013 C.ar    1  UNL1        0.1453
      2 C          62.9297   90.2582   10.7460 C.ar    1  UNL1        0.0375
      3 C          63.8839   91.3026   11.2446 C.ar    1  UNL1        0.0033
      4 C          64.5132   91.1584   12.5985 C.ar    1  UNL1        0.0046
      5 C          65.4675   92.2029   13.0971 C.ar    1  UNL1        0.0537
      6 C          66.0969   92.0587   14.4510 C.ar    1  UNL1        0.0045
      7 C          65.7719   90.8700   15.3064 C.ar    1  UNL1        0.0001
      8 C          64.8176   89.8256   14.8078 C.ar    1  UNL1        0.0001
      9 C          64.1883   89.9698   13.4539 C.ar    1  UNL1        0.0032
     10 C          63.2340   88.9254   12.9553 C.ar    1  UNL1        0.0375
     11 C          65.7925   93.3914   12.2417 C.2     1  UNL1        0.2505
     12 O          66.1342   94.7046   12.8811 O.2     1  UNL1       -0.2698
     13 N          65.7756   93.2668   10.7470 N.am    1  UNL1       -0.2658
     14 H          65.5513   92.4049   10.3274 H       1  UNL1        0.1566
     15 C          66.1005   94.4554    9.8916 C.ar    1  UNL1        0.1344
     16 C          67.3085   94.4319    9.0026 C.ar    1  UNL1        0.0345
     17 C          67.6335   95.6204    8.1472 C.ar    1  UNL1        0.0045
     18 C          66.7504   96.8325    8.1808 C.ar    1  UNL1        0.0208
     19 C          65.5425   96.8560    9.0697 C.ar    1  UNL1        0.1003
     20 N          65.2175   95.6675    9.9252 N.ar    1  UNL1       -0.2290
     21 O          61.6505   88.0252   11.1028 O.3     1  UNL1       -0.4534
     22 C          63.2765   83.1331   12.7378 C.ar    1  UNL1        0.1739
     23 C          63.4291   83.1450   11.2457 C.ar    1  UNL1        0.0592
     24 C          63.0607   84.3710   10.4638 C.ar    1  UNL1        0.0875
     25 N          63.2134   84.3829    8.9717 N.ar    1  UNL1       -0.2435
     26 C          62.8450   85.6089    8.1899 C.ar    1  UNL1        0.1020
     27 C          62.3241   86.8230    8.9003 C.ar    1  UNL1        0.0581
     28 C          62.1714   86.8111   10.3924 C.ar    1  UNL1        0.1483
     29 C          62.5398   85.5851   11.1742 C.ar    1  UNL1        0.0554
     30 C          62.3871   85.5731   12.6664 C.ar    1  UNL1        0.0446
     31 C          62.7555   84.3472   13.4482 C.ar    1  UNL1        0.1726
     32 C          62.6058   80.8668   13.8168 C.3     1  UNL1        0.2526
     33 O          63.6448   81.9070   13.5197 O.3     1  UNL1       -0.4683
     34 O          62.6029   84.3352   14.9404 O.3     1  UNL1       -0.4684
     35 C          63.4511   85.2361   15.7883 C.3     1  UNL1        0.2526
@<TRIPOS>BOND
     1    32    33    1
     2    33    22    1
     3    22    23   ar
     4    23    24   ar
     5    24    25   ar
     6    25    26   ar
     7    26    27   ar
     8    27    28   ar
     9    28    21    1
    10    21     1    1
    11     1     2   ar
    12     2     3   ar
    13     3     4   ar
    14     4     5   ar
    15     5    11    1
    16    11    12    2
    17    11    13   am
    18    13    15    1
    19    15    16   ar
    20    16    17   ar
    21    17    18   ar
    22    18    19   ar
    23    19    20   ar
    24     5     6   ar
    25     6     7   ar
    26     7     8   ar
    27     8     9   ar
    28     9    10   ar
    29    28    29   ar
    30    29    30   ar
    31    30    31   ar
    32    31    34    1
    33    34    35    1
    34    31    22   ar
    35    29    24   ar
    36    10     1   ar
    37     9     4   ar
    38    20    15   ar
    39    13    14    1
@<TRIPOS>MOLECULE
*****
 35 39 0 0 0
SMALL
GASTEIGER

@<TRIPOS>ATOM
      1 C          63.9312   90.1964   15.4688 C.ar    1  UNL1        0.1453
      2 C          64.2839   89.3172   14.3056 C.ar    1  UNL1        0.0375
      3 C          64.0982   87.8321   14.4046 C.ar    1  UNL1        0.0033
      4 C          63.5599   87.2260   15.6667 C.ar    1  UNL1        0.0046
      5 C          63.3743   85.7408   15.7657 C.ar    1  UNL1        0.0537
      6 C          62.8360   85.1347   17.0278 C.ar    1  UNL1        0.0045
      7 C          62.4834   86.0139   18.1910 C.ar    1  UNL1        0.0001
      8 C          62.6691   87.4990   18.0920 C.ar    1  UNL1        0.0001
      9 C          63.2073   88.1051   16.8298 C.ar    1  UNL1        0.0032
     10 C          63.3930   89.5903   16.7309 C.ar    1  UNL1        0.0375
     11 C          63.7269   84.8617   14.6026 C.2     1  UNL1        0.2505
     12 O          65.1583   84.4920   14.3487 O.2     1  UNL1       -0.2698
     13 N          62.6481   84.3524   13.6933 N.am    1  UNL1       -0.2658
     14 H          61.7086   84.5951   13.8600 H       1  UNL1        0.1566
     15 C          63.0007   83.4733   12.5301 C.ar    1  UNL1        0.1344
     16 C          63.5983   84.0722   11.2915 C.ar    1  UNL1        0.0345
     17 C          63.9509   83.1931   10.1284 C.ar    1  UNL1        0.0045
     18 C          63.7058   81.7153   10.2039 C.ar    1  UNL1        0.0208
     19 C          63.1081   81.1164   11.4425 C.ar    1  UNL1        0.1003
     20 N          62.7556   81.9954   12.6056 N.ar    1  UNL1       -0.2290
     21 O          64.1169   91.6815   15.3697 O.3     1  UNL1       -0.4534
     22 C          66.6473   92.9353   10.7573 C.ar    1  UNL1        0.1739
     23 C          67.6041   93.2735   11.8618 C.ar    1  UNL1        0.0592
     24 C          67.2107   93.0446   13.2912 C.ar    1  UNL1        0.0875
     25 N          68.1675   93.3827   14.3958 N.ar    1  UNL1       -0.2435
     26 C          67.7741   93.1538   15.8250 C.ar    1  UNL1        0.1020
     27 C          66.4239   92.5867   16.1497 C.ar    1  UNL1        0.0581
     28 C          65.4671   92.2486   15.0451 C.ar    1  UNL1        0.1483
     29 C          65.8605   92.4775   13.6158 C.ar    1  UNL1        0.0554
     30 C          64.9037   92.1393   12.5112 C.ar    1  UNL1        0.0446
     31 C          65.2971   92.3683   11.0819 C.ar    1  UNL1        0.1726
     32 C          68.3992   92.7472    8.8480 C.3     1  UNL1        0.2526
     33 O          67.0407   93.1642    9.3279 O.3     1  UNL1       -0.4683
     34 O          64.3403   92.0301    9.9772 O.3     1  UNL1       -0.4684
     35 C          63.1155   91.2148   10.2692 C.3     1  UNL1        0.2526
@<TRIPOS>BOND
     1    32    33    1
     2    33    22    1
     3    22    23   ar
     4    23    24   ar
     5    24    25   ar
     6    25    26   ar
     7    26    27   ar
     8    27    28   ar
     9    28    21    1
    10    21     1    1
    11     1     2   ar
    12     2     3   ar
    13     3     4   ar
    14     4     5   ar
    15     5    11    1
    16    11    12    2
    17    11    13   am
    18    13    15    1
    19    15    16   ar
    20    16    17   ar
    21    17    18   ar
    22    18    19   ar
    23    19    20   ar
    24     5     6   ar
    25     6     7   ar
    26     7     8   ar
    27     8     9   ar
    28     9    10   ar
    29    28    29   ar
    30    29    30   ar
    31    30    31   ar
    32    31    34    1
    33    34    35    1
    34    31    22   ar
    35    29    24   ar
    36    10     1   ar
    37     9     4   ar
    38    20    15   ar
    39    13    14    1
@<TRIPOS>MOLECULE
*****
 35 39 0 0 0
SMALL
GASTEIGER

@<TRIPOS>ATOM
      1 C          63.8994   89.4519   14.6451 C.ar    1  UNL1        0.1453
      2 C          63.4954   89.1937   13.2237 C.ar    1  UNL1        0.0375
      3 C          63.3472   87.7850   12.7303 C.ar    1  UNL1        0.0033
      4 C          63.6030   86.6345   13.6581 C.ar    1  UNL1        0.0046
      5 C          63.4548   85.2257   13.1645 C.ar    1  UNL1        0.0537
      6 C          63.7105   84.0752   14.0924 C.ar    1  UNL1        0.0045
      7 C          64.1145   84.3334   15.5137 C.ar    1  UNL1        0.0001
      8 C          64.2628   85.7421   16.0072 C.ar    1  UNL1        0.0001
      9 C          64.0070   86.8926   15.0794 C.ar    1  UNL1        0.0032
     10 C          64.1552   88.3014   15.5729 C.ar    1  UNL1        0.0375
     11 C          63.0508   84.9676   11.7433 C.2     1  UNL1        0.2505
     12 O          63.2915   83.6209   11.1279 O.2     1  UNL1       -0.2698
     13 N          62.4060   86.0560   10.9373 N.am    1  UNL1       -0.2658
     14 H          62.2480   86.9398   11.3412 H       1  UNL1        0.1566
     15 C          62.0020   85.7979    9.5160 C.ar    1  UNL1        0.1344
     16 C          62.9886   85.2107    8.5507 C.ar    1  UNL1        0.0345
     17 C          62.5846   84.9525    7.1294 C.ar    1  UNL1        0.0045
     18 C          61.1941   85.2816    6.6734 C.ar    1  UNL1        0.0208
     19 C          60.2075   85.8688    7.6387 C.ar    1  UNL1        0.1003
     20 N          60.6114   86.1270    9.0600 N.ar    1  UNL1       -0.2290
     21 O          64.0476   90.8606   15.1386 O.3     1  UNL1       -0.4534
     22 C          66.1924   93.1126   10.7138 C.ar    1  UNL1        0.1739
     23 C          67.1628   93.3762   11.8268 C.ar    1  UNL1        0.0592
     24 C          66.8692   92.8791   13.2113 C.ar    1  UNL1        0.0875
     25 N          67.8396   93.1427   14.3243 N.ar    1  UNL1       -0.2435
     26 C          67.5460   92.6457   15.7087 C.ar    1  UNL1        0.1020
     27 C          66.2820   91.8850   15.9801 C.ar    1  UNL1        0.0581
     28 C          65.3116   91.6213   14.8671 C.ar    1  UNL1        0.1483
     29 C          65.6052   92.1184   13.4827 C.ar    1  UNL1        0.0554
     30 C          64.6348   91.8548   12.3696 C.ar    1  UNL1        0.0446
     31 C          64.9284   92.3519   10.9852 C.ar    1  UNL1        0.1726
     32 C          67.7271   94.4104    9.0674 C.3     1  UNL1        0.2526
     33 O          66.4860   93.6097    9.3293 O.3     1  UNL1       -0.4683
     34 O          63.9580   92.0883    9.8721 O.3     1  UNL1       -0.4684
     35 C          62.8514   91.0936   10.0618 C.3     1  UNL1        0.2526
@<TRIPOS>BOND
     1    32    33    1
     2    33    22    1
     3    22    23   ar
     4    23    24   ar
     5    24    25   ar
     6    25    26   ar
     7    26    27   ar
     8    27    28   ar
     9    28    21    1
    10    21     1    1
    11     1     2   ar
    12     2     3   ar
    13     3     4   ar
    14     4     5   ar
    15     5    11    1
    16    11    12    2
    17    11    13   am
    18    13    15    1
    19    15    16   ar
    20    16    17   ar
    21    17    18   ar
    22    18    19   ar
    23    19    20   ar
    24     5     6   ar
    25     6     7   ar
    26     7     8   ar
    27     8     9   ar
    28     9    10   ar
    29    28    29   ar
    30    29    30   ar
    31    30    31   ar
    32    31    34    1
    33    34    35    1
    34    31    22   ar
    35    29    24   ar
    36    10     1   ar
    37     9     4   ar
    38    20    15   ar
    39    13    14    1
@<TRIPOS>MOLECULE
*****
 35 39 0 0 0
SMALL
GASTEIGER

@<TRIPOS>ATOM
      1 C          64.2549   90.0742   15.0553 C.ar    1  UNL1        0.1453
      2 C          64.5166   89.0108   14.0302 C.ar    1  UNL1        0.0375
      3 C          64.2047   87.5768   14.3407 C.ar    1  UNL1        0.0033
      4 C          63.6312   87.2062   15.6763 C.ar    1  UNL1        0.0046
      5 C          63.3193   85.7722   15.9868 C.ar    1  UNL1        0.0537
      6 C          62.7458   85.4016   17.3224 C.ar    1  UNL1        0.0045
      7 C          62.4842   86.4651   18.3474 C.ar    1  UNL1        0.0001
      8 C          62.7960   87.8990   18.0369 C.ar    1  UNL1        0.0001
      9 C          63.3696   88.2696   16.7013 C.ar    1  UNL1        0.0032
     10 C          63.6814   89.7037   16.3908 C.ar    1  UNL1        0.0375
     11 C          63.5810   84.7088   14.9618 C.2     1  UNL1        0.2505
     12 O          64.7147   83.7455   15.1530 O.2     1  UNL1       -0.2698
     13 N          62.7089   84.6088   13.7455 N.am    1  UNL1       -0.2658
     14 H          61.9647   85.2411   13.6200 H       1  UNL1        0.1566
     15 C          62.9705   83.5454   12.7204 C.ar    1  UNL1        0.1344
     16 C          63.6618   83.8956   11.4361 C.ar    1  UNL1        0.0345
     17 C          63.9234   82.8323   10.4110 C.ar    1  UNL1        0.0045
     18 C          63.4937   81.4188   10.6702 C.ar    1  UNL1        0.0208
     19 C          62.8024   81.0686   11.9545 C.ar    1  UNL1        0.1003
     20 N          62.5408   82.1319   12.9796 N.ar    1  UNL1       -0.2290
     21 O          64.5668   91.5082   14.7447 O.3     1  UNL1       -0.4534
     22 C          62.1491   90.2838   10.0644 C.ar    1  UNL1        0.1739
     23 C          63.2306   91.2676    9.7291 C.ar    1  UNL1        0.0592
     24 C          64.1055   91.8196   10.8153 C.ar    1  UNL1        0.0875
     25 N          65.1870   92.8034   10.4800 N.ar    1  UNL1       -0.2435
     26 C          66.0618   93.3554   11.5662 C.ar    1  UNL1        0.1020
     27 C          65.8551   92.9237   12.9878 C.ar    1  UNL1        0.0581
     28 C          64.7735   91.9399   13.3232 C.ar    1  UNL1        0.1483
     29 C          63.8987   91.3879   12.2369 C.ar    1  UNL1        0.0554
     30 C          62.8171   90.4041   12.5722 C.ar    1  UNL1        0.0446
     31 C          61.9423   89.8521   11.4860 C.ar    1  UNL1        0.1726
     32 C          59.7822   89.8386    9.0899 C.3     1  UNL1        0.2526
     33 O          61.2742   89.7318    8.9781 O.3     1  UNL1       -0.4683
     34 O          60.8607   88.8683   11.8213 O.3     1  UNL1       -0.4684
     35 C          59.5706   89.3467   12.4185 C.3     1  UNL1        0.2526
@<TRIPOS>BOND
     1    32    33    1
     2    33    22    1
     3    22    23   ar
     4    23    24   ar
     5    24    25   ar
     6    25    26   ar
     7    26    27   ar
     8    27    28   ar
     9    28    21    1
    10    21     1    1
    11     1     2   ar
    12     2     3   ar
    13     3     4   ar
    14     4     5   ar
    15     5    11    1
    16    11    12    2
    17    11    13   am
    18    13    15    1
    19    15    16   ar
    20    16    17   ar
    21    17    18   ar
    22    18    19   ar
    23    19    20   ar
    24     5     6   ar
    25     6     7   ar
    26     7     8   ar
    27     8     9   ar
    28     9    10   ar
    29    28    29   ar
    30    29    30   ar
    31    30    31   ar
    32    31    34    1
    33    34    35    1
    34    31    22   ar
    35    29    24   ar
    36    10     1   ar
    37     9     4   ar
    38    20    15   ar
    39    13    14    1
@<TRIPOS>MOLECULE
*****
 35 39 0 0 0
SMALL
GASTEIGER

@<TRIPOS>ATOM
      1 C          63.7023   89.0274   13.8033 C.ar    1  UNL1        0.1453
      2 C          63.5733   89.7132   12.4754 C.ar    1  UNL1        0.0375
      3 C          64.3200   90.9875   12.2137 C.ar    1  UNL1        0.0033
      4 C          65.1957   91.5761   13.2798 C.ar    1  UNL1        0.0046
      5 C          65.9424   92.8505   13.0181 C.ar    1  UNL1        0.0537
      6 C          66.8181   93.4391   14.0842 C.ar    1  UNL1        0.0045
      7 C          66.9471   92.7534   15.4121 C.ar    1  UNL1        0.0001
      8 C          66.2004   91.4791   15.6738 C.ar    1  UNL1        0.0001
      9 C          65.3247   90.8905   14.6077 C.ar    1  UNL1        0.0032
     10 C          64.5780   89.6161   14.8694 C.ar    1  UNL1        0.0375
     11 C          65.8135   93.5361   11.6902 C.2     1  UNL1        0.2505
     12 O          64.9142   92.9639   10.6348 O.2     1  UNL1       -0.2698
     13 N          66.5838   94.7940   11.4178 N.am    1  UNL1       -0.2658
     14 H          67.1740   95.1696   12.1105 H       1  UNL1        0.1566
     15 C          66.4548   95.4798   10.0899 C.ar    1  UNL1        0.1344
     16 C          65.1745   96.1702    9.7236 C.ar    1  UNL1        0.0345
     17 C          65.0455   96.8559    8.3957 C.ar    1  UNL1        0.0045
     18 C          66.1968   96.8512    7.4343 C.ar    1  UNL1        0.0208
     19 C          67.4771   96.1607    7.8006 C.ar    1  UNL1        0.1003
     20 N          67.6061   95.4750    9.1284 N.ar    1  UNL1       -0.2290
     21 O          62.9556   87.7531   14.0650 O.3     1  UNL1       -0.4534
     22 C          61.9237   85.9092    9.0865 C.ar    1  UNL1        0.1739
     23 C          62.7570   84.8566    9.7556 C.ar    1  UNL1        0.0592
     24 C          63.2233   85.0544   11.1675 C.ar    1  UNL1        0.0875
     25 N          64.0566   84.0019   11.8366 N.ar    1  UNL1       -0.2435
     26 C          64.5228   84.1997   13.2484 C.ar    1  UNL1        0.1020
     27 C          64.1558   85.4501   13.9912 C.ar    1  UNL1        0.0581
     28 C          63.3226   86.5027   13.3222 C.ar    1  UNL1        0.1483
     29 C          62.8563   86.3049   11.9103 C.ar    1  UNL1        0.0554
     30 C          62.0230   87.3575   11.2412 C.ar    1  UNL1        0.0446
     31 C          61.5567   87.1596    9.8293 C.ar    1  UNL1        0.1726
     32 C          62.2064   84.7883    6.7597 C.3     1  UNL1        0.2526
     33 O          61.4574   85.7114    7.6746 O.3     1  UNL1       -0.4683
     34 O          60.7234   88.2122    9.1602 O.3     1  UNL1       -0.4684
     35 C          60.8467   89.6465    9.5816 C.3     1  UNL1        0.2526
@<TRIPOS>BOND
     1    32    33    1
     2    33    22    1
     3    22    23   ar
     4    23    24   ar
     5    24    25   ar
     6    25    26   ar
     7    26    27   ar
     8    27    28   ar
     9    28    21    1
    10    21     1    1
    11     1     2   ar
    12     2     3   ar
    13     3     4   ar
    14     4     5   ar
    15     5    11    1
    16    11    12    2
    17    11    13   am
    18    13    15    1
    19    15    16   ar
    20    16    17   ar
    21    17    18   ar
    22    18    19   ar
    23    19    20   ar
    24     5     6   ar
    25     6     7   ar
    26     7     8   ar
    27     8     9   ar
    28     9    10   ar
    29    28    29   ar
    30    29    30   ar
    31    30    31   ar
    32    31    34    1
    33    34    35    1
    34    31    22   ar
    35    29    24   ar
    36    10     1   ar
    37     9     4   ar
    38    20    15   ar
    39    13    14    1
@<TRIPOS>MOLECULE
*****
 35 39 0 0 0
SMALL
GASTEIGER

@<TRIPOS>ATOM
      1 C          63.3512   89.9427   13.0652 C.ar    1  UNL1        0.1453
      2 C          63.5022   88.6151   12.3834 C.ar    1  UNL1        0.0375
      3 C          63.5233   87.3535   13.1945 C.ar    1  UNL1        0.0033
      4 C          63.3933   87.4195   14.6874 C.ar    1  UNL1        0.0046
      5 C          63.4144   86.1578   15.4986 C.ar    1  UNL1        0.0537
      6 C          63.2844   86.2237   16.9915 C.ar    1  UNL1        0.0045
      7 C          63.1333   87.5513   17.6732 C.ar    1  UNL1        0.0001
      8 C          63.1123   88.8129   16.8621 C.ar    1  UNL1        0.0001
      9 C          63.2423   88.7470   15.3692 C.ar    1  UNL1        0.0032
     10 C          63.2212   90.0086   14.5581 C.ar    1  UNL1        0.0375
     11 C          63.5655   84.8303   14.8168 C.2     1  UNL1        0.2505
     12 O          64.9318   84.2536   14.5924 O.2     1  UNL1       -0.2698
     13 N          62.3501   84.0795   14.3594 N.am    1  UNL1       -0.2658
     14 H          61.4533   84.4581   14.5066 H       1  UNL1        0.1566
     15 C          62.5011   82.7519   13.6775 C.ar    1  UNL1        0.1344
     16 C          62.7715   82.6924   12.2033 C.ar    1  UNL1        0.0345
     17 C          62.9225   81.3650   11.5215 C.ar    1  UNL1        0.0045
     18 C          62.8032   80.0970   12.3139 C.ar    1  UNL1        0.0208
     19 C          62.5328   80.1565   13.7881 C.ar    1  UNL1        0.1003
     20 N          62.3818   81.4840   14.4699 N.ar    1  UNL1       -0.2290
     21 O          63.3301   91.2042   12.2541 O.3     1  UNL1       -0.4534
     22 C          67.3067   93.3262   15.2430 C.ar    1  UNL1        0.1739
     23 C          67.6932   93.5571   13.8122 C.ar    1  UNL1        0.0592
     24 C          66.7956   93.0843   12.7072 C.ar    1  UNL1        0.0875
     25 N          67.1821   93.3152   11.2764 N.ar    1  UNL1       -0.2435
     26 C          66.2845   92.8425   10.1715 C.ar    1  UNL1        0.1020
     27 C          65.0005   92.1388   10.4974 C.ar    1  UNL1        0.0581
     28 C          64.6141   91.9079   11.9282 C.ar    1  UNL1        0.1483
     29 C          65.5116   92.3807   13.0331 C.ar    1  UNL1        0.0554
     30 C          65.1252   92.1498   14.4640 C.ar    1  UNL1        0.0446
     31 C          66.0227   92.6225   15.5689 C.ar    1  UNL1        0.1726
     32 C          69.6408   94.1215   16.0613 C.3     1  UNL1        0.2526
     33 O          68.2043   93.7989   16.3480 O.3     1  UNL1       -0.4683
     34 O          65.6363   92.3916   16.9998 O.3     1  UNL1       -0.4684
     35 C          64.1879   92.3404   17.3866 C.3     1  UNL1        0.2526
@<TRIPOS>BOND
     1    32    33    1
     2    33    22    1
     3    22    23   ar
     4    23    24   ar
     5    24    25   ar
     6    25    26   ar
     7    26    27   ar
     8    27    28   ar
     9    28    21    1
    10    21     1    1
    11     1     2   ar
    12     2     3   ar
    13     3     4   ar
    14     4     5   ar
    15     5    11    1
    16    11    12    2
    17    11    13   am
    18    13    15    1
    19    15    16   ar
    20    16    17   ar
    21    17    18   ar
    22    18    19   ar
    23    19    20   ar
    24     5     6   ar
    25     6     7   ar
    26     7     8   ar
    27     8     9   ar
    28     9    10   ar
    29    28    29   ar
    30    29    30   ar
    31    30    31   ar
    32    31    34    1
    33    34    35    1
    34    31    22   ar
    35    29    24   ar
    36    10     1   ar
    37     9     4   ar
    38    20    15   ar
    39    13    14    1
