@<TRIPOS>MOLECULE
*****
 25 27 0 0 0
SMALL
GASTEIGER

@<TRIPOS>ATOM
      1 C          61.8365   86.2525    8.7182 C.ar    1  UNL1       -0.0031
      2 C          60.6687   85.8449    7.8694 C.ar    1  UNL1       -0.0027
      3 C          59.5052   86.7759    7.6978 C.ar    1  UNL1        0.0029
      4 C          59.5094   88.1144    8.3748 C.ar    1  UNL1        0.0375
      5 C          60.6771   88.5219    9.2235 C.ar    1  UNL1        0.1450
      6 C          61.8407   87.5910    9.3952 C.ar    1  UNL1        0.0346
      7 C          63.0000   85.3215    8.8898 C.3     1  UNL1        0.0992
      8 C          63.5264   83.0654   12.7477 C.3     1  UNL1        0.1018
      9 C          62.6567   84.2868   12.7058 C.3     1  UNL1        0.0285
     10 C          62.4813   85.0388   11.4198 C.3     1  UNL1        0.0729
     11 N          63.1755   84.5695   10.1758 N.3     1  UNL1       -0.2689
     12 C          64.0452   83.3481   10.2177 C.3     1  UNL1        0.0729
     13 C          64.2206   82.5960   11.5036 C.3     1  UNL1        0.0285
     14 C          63.7019   82.3134   14.0336 C.2     1  UNL1        0.3165
     15 O          64.1454   83.0363   15.2708 O.2     1  UNL1       -0.2501
     16 O          63.4338   80.8384   14.0824 O.3     1  UNL1       -0.4485
     17 C          60.8360   80.8022   14.0822 C.3     1  UNL1        0.0513
     18 C          62.1423   80.2927   13.5492 C.3     1  UNL1        0.2086
     19 O          60.6812   89.8604    9.9006 O.3     1  UNL1       -0.4535
     20 C          61.8631   90.2814   10.7228 C.ar    1  UNL1        0.1453
     21 C          62.9228   91.1554   10.1203 C.ar    1  UNL1        0.0375
     22 C          64.1047   91.5764   10.9425 C.ar    1  UNL1        0.0031
     23 C          64.2268   91.1233   12.3672 C.ar    1  UNL1        0.0002
     24 C          63.1671   90.2492   12.9697 C.ar    1  UNL1        0.0031
     25 C          61.9852   89.8282   12.1475 C.ar    1  UNL1        0.0375
@<TRIPOS>BOND
     1    17    18    1
     2    18    16    1
     3    16    14    1
     4    14    15    2
     5    14     8    1
     6     8     9    1
     7     9    10    1
     8    10    11    1
     9    11     7    1
    10     7     1    1
    11     1     2   ar
    12     2     3   ar
    13     3     4   ar
    14     4     5   ar
    15     5    19    1
    16    19    20    1
    17    20    21   ar
    18    21    22   ar
    19    22    23   ar
    20    23    24   ar
    21    24    25   ar
    22     5     6   ar
    23    11    12    1
    24    12    13    1
    25    13     8    1
    26     6     1   ar
    27    25    20   ar
@<TRIPOS>MOLECULE
*****
 25 27 0 0 0
SMALL
GASTEIGER

@<TRIPOS>ATOM
      1 C          63.2275   84.2202   14.8959 C.ar    1  UNL1       -0.0031
      2 C          62.4468   82.9556   15.0994 C.ar    1  UNL1       -0.0027
      3 C          62.1250   82.0761   13.9276 C.ar    1  UNL1        0.0029
      4 C          62.5837   82.4613   12.5524 C.ar    1  UNL1        0.0375
      5 C          63.3643   83.7259   12.3489 C.ar    1  UNL1        0.1450
      6 C          63.6862   84.6054   13.5207 C.ar    1  UNL1        0.0346
      7 C          63.5493   85.0997   16.0676 C.3     1  UNL1        0.0992
      8 C          63.7948   89.5609   15.5321 C.3     1  UNL1        0.1018
      9 C          63.1011   88.9866   16.7316 C.3     1  UNL1        0.0285
     10 C          63.0192   87.4995   16.9101 C.3     1  UNL1        0.0729
     11 N          63.6311   86.5868   15.8891 N.3     1  UNL1       -0.2689
     12 C          64.3249   87.1611   14.6896 C.3     1  UNL1        0.0729
     13 C          64.4067   88.6482   14.5111 C.3     1  UNL1        0.0285
     14 C          63.8767   91.0480   15.3536 C.2     1  UNL1        0.3165
     15 O          63.5831   91.9593   16.5083 O.2     1  UNL1       -0.2501
     16 O          64.2521   91.6239   14.0204 O.3     1  UNL1       -0.4485
     17 C          66.7669   91.5732   14.6709 C.3     1  UNL1        0.0513
     18 C          65.6725   92.0221   13.7486 C.3     1  UNL1        0.2086
     19 O          63.8230   84.1110   10.9737 O.3     1  UNL1       -0.4535
     20 C          62.8891   84.8291   10.0452 C.ar    1  UNL1        0.1453
     21 C          61.7609   85.6469   10.6008 C.ar    1  UNL1        0.0375
     22 C          60.8270   86.3650    9.6723 C.ar    1  UNL1        0.0031
     23 C          61.0211   86.2654    8.1883 C.ar    1  UNL1        0.0002
     24 C          62.1492   85.4476    7.6327 C.ar    1  UNL1        0.0031
     25 C          63.0832   84.7295    8.5612 C.ar    1  UNL1        0.0375
@<TRIPOS>BOND
     1    17    18    1
     2    18    16    1
     3    16    14    1
     4    14    15    2
     5    14     8    1
     6     8     9    1
     7     9    10    1
     8    10    11    1
     9    11     7    1
    10     7     1    1
    11     1     2   ar
    12     2     3   ar
    13     3     4   ar
    14     4     5   ar
    15     5    19    1
    16    19    20    1
    17    20    21   ar
    18    21    22   ar
    19    22    23   ar
    20    23    24   ar
    21    24    25   ar
    22     5     6   ar
    23    11    12    1
    24    12    13    1
    25    13     8    1
    26     6     1   ar
    27    25    20   ar
@<TRIPOS>MOLECULE
*****
 25 27 0 0 0
SMALL
GASTEIGER

@<TRIPOS>ATOM
      1 C          60.7626   88.4582    9.5574 C.ar    1  UNL1       -0.0031
      2 C          59.6638   88.0971    8.6022 C.ar    1  UNL1       -0.0027
      3 C          59.7531   86.8331    7.7995 C.ar    1  UNL1        0.0029
      4 C          60.9411   85.9301    7.9520 C.ar    1  UNL1        0.0375
      5 C          62.0398   86.2912    8.9072 C.ar    1  UNL1        0.1450
      6 C          61.9506   87.5552    9.7099 C.ar    1  UNL1        0.0346
      7 C          60.6733   89.7222   10.3601 C.3     1  UNL1        0.0992
      8 C          64.4032   91.5698   12.0701 C.3     1  UNL1        0.1018
      9 C          64.0525   91.7860   10.6278 C.3     1  UNL1        0.0285
     10 C          62.8092   91.1701   10.0578 C.3     1  UNL1        0.0729
     11 N          61.9166   90.3380   10.9301 N.3     1  UNL1       -0.2689
     12 C          62.2673   90.1219   12.3724 C.3     1  UNL1        0.0729
     13 C          63.5106   90.7377   12.9424 C.3     1  UNL1        0.0285
     14 C          65.6465   92.1857   12.6401 C.2     1  UNL1        0.3165
     15 O          66.8994   92.2445   11.8175 O.2     1  UNL1       -0.2501
     16 O          65.6369   92.7427   14.0328 O.3     1  UNL1       -0.4485
     17 C          67.2028   92.7995   16.1053 C.3     1  UNL1        0.0513
     18 C          66.9218   93.1691   14.6789 C.3     1  UNL1        0.2086
     19 O          63.2278   85.3882    9.0597 O.3     1  UNL1       -0.4535
     20 C          63.3016   84.4344   10.2150 C.ar    1  UNL1        0.1453
     21 C          64.0635   83.1494   10.0794 C.ar    1  UNL1        0.0375
     22 C          64.1372   82.1957   11.2347 C.ar    1  UNL1        0.0031
     23 C          63.4490   82.5268   12.5258 C.ar    1  UNL1        0.0002
     24 C          62.6871   83.8117   12.6614 C.ar    1  UNL1        0.0031
     25 C          62.6134   84.7656   11.5061 C.ar    1  UNL1        0.0375
@<TRIPOS>BOND
     1    17    18    1
     2    18    16    1
     3    16    14    1
     4    14    15    2
     5    14     8    1
     6     8     9    1
     7     9    10    1
     8    10    11    1
     9    11     7    1
    10     7     1    1
    11     1     2   ar
    12     2     3   ar
    13     3     4   ar
    14     4     5   ar
    15     5    19    1
    16    19    20    1
    17    20    21   ar
    18    21    22   ar
    19    22    23   ar
    20    23    24   ar
    21    24    25   ar
    22     5     6   ar
    23    11    12    1
    24    12    13    1
    25    13     8    1
    26     6     1   ar
    27    25    20   ar
@<TRIPOS>MOLECULE
*****
 25 27 0 0 0
SMALL
GASTEIGER

@<TRIPOS>ATOM
      1 C          62.0795   87.7581   10.9011 C.ar    1  UNL1       -0.0031
      2 C          61.8576   87.2012    9.5260 C.ar    1  UNL1       -0.0027
      3 C          62.2089   85.7734    9.2294 C.ar    1  UNL1        0.0029
      4 C          62.7821   84.9025   10.3078 C.ar    1  UNL1        0.0375
      5 C          63.0040   85.4593   11.6828 C.ar    1  UNL1        0.1450
      6 C          62.6527   86.8871   11.9794 C.ar    1  UNL1        0.0346
      7 C          61.7282   89.1859   11.1977 C.3     1  UNL1        0.0992
      8 C          64.9568   92.1087   12.3304 C.3     1  UNL1        0.1018
      9 C          64.3784   91.1914   13.3666 C.3     1  UNL1        0.0285
     10 C          63.3022   90.2171   12.9891 C.3     1  UNL1        0.0729
     11 N          62.8044   90.1601   11.5752 N.3     1  UNL1       -0.2689
     12 C          63.3829   91.0775   10.5390 C.3     1  UNL1        0.0729
     13 C          64.4591   92.0518   10.9166 C.3     1  UNL1        0.0285
     14 C          66.0330   93.0830   12.7079 C.2     1  UNL1        0.3165
     15 O          67.0701   93.4826   11.7006 O.2     1  UNL1       -0.2501
     16 O          66.0722   93.6577   14.0929 O.3     1  UNL1       -0.4485
     17 C          67.6797   92.0313   15.3262 C.3     1  UNL1        0.0513
     18 C          67.2700   93.4288   14.9663 C.3     1  UNL1        0.2086
     19 O          63.5772   84.5884   12.7611 O.3     1  UNL1       -0.4535
     20 C          63.0611   83.1929   12.9516 C.ar    1  UNL1        0.1453
     21 C          62.1848   82.8710   14.1258 C.ar    1  UNL1        0.0375
     22 C          61.6688   81.4755   14.3163 C.ar    1  UNL1        0.0031
     23 C          62.0290   80.4019   13.3326 C.ar    1  UNL1        0.0002
     24 C          62.9053   80.7237   12.1585 C.ar    1  UNL1        0.0031
     25 C          63.4213   82.1192   11.9680 C.ar    1  UNL1        0.0375
@<TRIPOS>BOND
     1    17    18    1
     2    18    16    1
     3    16    14    1
     4    14    15    2
     5    14     8    1
     6     8     9    1
     7     9    10    1
     8    10    11    1
     9    11     7    1
    10     7     1    1
    11     1     2   ar
    12     2     3   ar
    13     3     4   ar
    14     4     5   ar
    15     5    19    1
    16    19    20    1
    17    20    21   ar
    18    21    22   ar
    19    22    23   ar
    20    23    24   ar
    21    24    25   ar
    22     5     6   ar
    23    11    12    1
    24    12    13    1
    25    13     8    1
    26     6     1   ar
    27    25    20   ar
@<TRIPOS>MOLECULE
*****
 25 27 0 0 0
SMALL
GASTEIGER

@<TRIPOS>ATOM
      1 C          61.3398   88.3281   10.9032 C.ar    1  UNL1       -0.0031
      2 C          60.3860   88.0932    9.7695 C.ar    1  UNL1       -0.0027
      3 C          60.3792   86.7737    9.0563 C.ar    1  UNL1        0.0029
      4 C          61.3261   85.6890    9.4767 C.ar    1  UNL1        0.0375
      5 C          62.2799   85.9238   10.6103 C.ar    1  UNL1        0.1450
      6 C          62.2867   87.2434   11.3236 C.ar    1  UNL1        0.0346
      7 C          61.3466   89.6477   11.6164 C.3     1  UNL1        0.0992
      8 C          65.1071   92.1157   11.7464 C.3     1  UNL1        0.1018
      9 C          64.6200   91.4252   12.9857 C.3     1  UNL1        0.0285
     10 C          63.3665   90.6026   12.9423 C.3     1  UNL1        0.0729
     11 N          62.6001   90.4704   11.6597 N.3     1  UNL1       -0.2689
     12 C          63.0872   91.1608   10.4204 C.3     1  UNL1        0.0729
     13 C          64.3408   91.9835   10.4638 C.3     1  UNL1        0.0285
     14 C          66.3607   92.9384   11.7897 C.2     1  UNL1        0.3165
     15 O          67.3154   92.7907   12.9371 O.2     1  UNL1       -0.2501
     16 O          66.6594   93.9088   10.6856 O.3     1  UNL1       -0.4485
     17 C          68.2755   92.1848    9.6056 C.3     1  UNL1        0.0513
     18 C          67.5899   93.5187    9.5757 C.3     1  UNL1        0.2086
     19 O          63.2268   84.8392   11.0307 O.3     1  UNL1       -0.4535
     20 C          62.8505   83.9039   12.1414 C.ar    1  UNL1        0.1453
     21 C          62.5592   82.4631   11.8423 C.ar    1  UNL1        0.0375
     22 C          62.1828   81.5278   12.9530 C.ar    1  UNL1        0.0031
     23 C          62.0977   82.0333   14.3627 C.ar    1  UNL1        0.0002
     24 C          62.3890   83.4740   14.6618 C.ar    1  UNL1        0.0031
     25 C          62.7653   84.4093   13.5511 C.ar    1  UNL1        0.0375
@<TRIPOS>BOND
     1    17    18    1
     2    18    16    1
     3    16    14    1
     4    14    15    2
     5    14     8    1
     6     8     9    1
     7     9    10    1
     8    10    11    1
     9    11     7    1
    10     7     1    1
    11     1     2   ar
    12     2     3   ar
    13     3     4   ar
    14     4     5   ar
    15     5    19    1
    16    19    20    1
    17    20    21   ar
    18    21    22   ar
    19    22    23   ar
    20    23    24   ar
    21    24    25   ar
    22     5     6   ar
    23    11    12    1
    24    12    13    1
    25    13     8    1
    26     6     1   ar
    27    25    20   ar
@<TRIPOS>MOLECULE
*****
 25 27 0 0 0
SMALL
GASTEIGER

@<TRIPOS>ATOM
      1 C          62.5371   89.0077   10.8643 C.ar    1  UNL1       -0.0031
      2 C          62.7614   90.2541   10.0603 C.ar    1  UNL1       -0.0027
      3 C          63.5148   91.4059   10.6567 C.ar    1  UNL1        0.0029
      4 C          64.0440   91.3114   12.0570 C.ar    1  UNL1        0.0375
      5 C          63.8199   90.0651   12.8610 C.ar    1  UNL1        0.1450
      6 C          63.0664   88.9132   12.2646 C.ar    1  UNL1        0.0346
      7 C          61.7837   87.8560   10.2679 C.3     1  UNL1        0.0992
      8 C          63.1921   83.6403   10.9712 C.3     1  UNL1        0.1018
      9 C          62.6827   84.4620   12.1180 C.3     1  UNL1        0.0285
     10 C          62.2133   85.8672   11.8836 C.3     1  UNL1        0.0729
     11 N          62.2532   86.4507   10.5023 N.3     1  UNL1       -0.2689
     12 C          62.7626   85.6290    9.3555 C.3     1  UNL1        0.0729
     13 C          63.2320   84.2238    9.5899 C.3     1  UNL1        0.0285
     14 C          63.6616   82.2351   11.2056 C.2     1  UNL1        0.3165
     15 O          63.4038   81.1764   10.1747 O.2     1  UNL1       -0.2501
     16 O          64.3888   81.8885   12.4709 O.3     1  UNL1       -0.4485
     17 C          62.4229   80.4286   13.3392 C.3     1  UNL1        0.0513
     18 C          63.6510   81.2469   13.6083 C.3     1  UNL1        0.2086
     19 O          64.3491   89.9705   14.2613 O.3     1  UNL1       -0.4535
     20 C          64.0028   88.7874   15.1157 C.ar    1  UNL1        0.1453
     21 C          64.4466   87.4133   14.7095 C.ar    1  UNL1        0.0375
     22 C          64.1003   86.2301   15.5639 C.ar    1  UNL1        0.0031
     23 C          63.3101   86.4209   16.8246 C.ar    1  UNL1        0.0002
     24 C          62.8663   87.7949   17.2308 C.ar    1  UNL1        0.0031
     25 C          63.2127   88.9782   16.3764 C.ar    1  UNL1        0.0375
@<TRIPOS>BOND
     1    17    18    1
     2    18    16    1
     3    16    14    1
     4    14    15    2
     5    14     8    1
     6     8     9    1
     7     9    10    1
     8    10    11    1
     9    11     7    1
    10     7     1    1
    11     1     2   ar
    12     2     3   ar
    13     3     4   ar
    14     4     5   ar
    15     5    19    1
    16    19    20    1
    17    20    21   ar
    18    21    22   ar
    19    22    23   ar
    20    23    24   ar
    21    24    25   ar
    22     5     6   ar
    23    11    12    1
    24    12    13    1
    25    13     8    1
    26     6     1   ar
    27    25    20   ar
@<TRIPOS>MOLECULE
*****
 25 27 0 0 0
SMALL
GASTEIGER

@<TRIPOS>ATOM
      1 C          63.4880   83.2881   11.9035 C.ar    1  UNL1       -0.0031
      2 C          62.7469   82.0017   12.1180 C.ar    1  UNL1       -0.0027
      3 C          62.5552   81.4692   13.5071 C.ar    1  UNL1        0.0029
      4 C          63.1046   82.2231   14.6818 C.ar    1  UNL1        0.0375
      5 C          63.8457   83.5094   14.4674 C.ar    1  UNL1        0.1450
      6 C          64.0374   84.0420   13.0782 C.ar    1  UNL1        0.0346
      7 C          63.6797   83.8206   10.5144 C.3     1  UNL1        0.0992
      8 C          60.7925   86.8415    8.8445 C.3     1  UNL1        0.1018
      9 C          60.8317   86.5777   10.3205 C.3     1  UNL1        0.0285
     10 C          61.7941   85.5708   10.8772 C.3     1  UNL1        0.0729
     11 N          62.7173   84.8276    9.9578 N.3     1  UNL1       -0.2689
     12 C          62.6781   85.0914    8.4817 C.3     1  UNL1        0.0729
     13 C          61.7157   86.0983    7.9250 C.3     1  UNL1        0.0285
     14 C          59.8302   87.8484    8.2878 C.2     1  UNL1        0.3165
     15 O          58.5932   87.3891    7.5745 O.2     1  UNL1       -0.2501
     16 O          60.1048   89.3147    8.4444 O.3     1  UNL1       -0.4485
     17 C          61.6544   90.2739   10.2961 C.3     1  UNL1        0.0513
     18 C          60.2838   89.9022    9.8129 C.3     1  UNL1        0.2086
     19 O          64.3951   84.2633   15.6421 O.3     1  UNL1       -0.4535
     20 C          64.0416   85.7078   15.8381 C.ar    1  UNL1        0.1453
     21 C          63.2060   86.1227   17.0127 C.ar    1  UNL1        0.0375
     22 C          62.8526   87.5672   17.2087 C.ar    1  UNL1        0.0031
     23 C          63.3346   88.5968   16.2302 C.ar    1  UNL1        0.0002
     24 C          64.1702   88.1819   15.0556 C.ar    1  UNL1        0.0031
     25 C          64.5237   86.7374   14.8595 C.ar    1  UNL1        0.0375
@<TRIPOS>BOND
     1    17    18    1
     2    18    16    1
     3    16    14    1
     4    14    15    2
     5    14     8    1
     6     8     9    1
     7     9    10    1
     8    10    11    1
     9    11     7    1
    10     7     1    1
    11     1     2   ar
    12     2     3   ar
    13     3     4   ar
    14     4     5   ar
    15     5    19    1
    16    19    20    1
    17    20    21   ar
    18    21    22   ar
    19    22    23   ar
    20    23    24   ar
    21    24    25   ar
    22     5     6   ar
    23    11    12    1
    24    12    13    1
    25    13     8    1
    26     6     1   ar
    27    25    20   ar
@<TRIPOS>MOLECULE
*****
 25 27 0 0 0
SMALL
GASTEIGER

@<TRIPOS>ATOM
      1 C          63.1299   83.4463   12.0030 C.ar    1  UNL1       -0.0031
      2 C          62.4172   82.1488   12.2450 C.ar    1  UNL1       -0.0027
      3 C          62.2753   81.6202   13.6416 C.ar    1  UNL1        0.0029
      4 C          62.8460   82.3892   14.7961 C.ar    1  UNL1        0.0375
      5 C          63.5586   83.6867   14.5542 C.ar    1  UNL1        0.1450
      6 C          63.7006   84.2153   13.1575 C.ar    1  UNL1        0.0346
      7 C          63.2719   83.9749   10.6064 C.3     1  UNL1        0.0992
      8 C          60.8602   87.5402    9.2940 C.3     1  UNL1        0.1018
      9 C          61.6723   86.7742    8.2922 C.3     1  UNL1        0.0285
     10 C          62.4762   85.5857    8.7297 C.3     1  UNL1        0.0729
     11 N          62.4680   85.1633   10.1689 N.3     1  UNL1       -0.2689
     12 C          61.6559   85.9294   11.1707 C.3     1  UNL1        0.0729
     13 C          60.8520   87.1179   10.7332 C.3     1  UNL1        0.0285
     14 C          60.0564   88.7287    8.8565 C.2     1  UNL1        0.3165
     15 O          59.9914   89.9507    9.7240 O.2     1  UNL1       -0.2501
     16 O          59.3175   88.6952    7.5516 O.3     1  UNL1       -0.4485
     17 C          58.4864   90.4186    5.7940 C.3     1  UNL1        0.0513
     18 C          59.6125   89.7193    6.4961 C.3     1  UNL1        0.2086
     19 O          64.1293   84.4556   15.7087 O.3     1  UNL1       -0.4535
     20 C          63.9317   85.9401   15.7921 C.ar    1  UNL1        0.1453
     21 C          64.5190   86.8351   14.7412 C.ar    1  UNL1        0.0375
     22 C          64.3214   88.3197   14.8246 C.ar    1  UNL1        0.0031
     23 C          63.5365   88.9093   15.9588 C.ar    1  UNL1        0.0002
     24 C          62.9493   88.0145   17.0096 C.ar    1  UNL1        0.0031
     25 C          63.1469   86.5298   16.9263 C.ar    1  UNL1        0.0375
@<TRIPOS>BOND
     1    17    18    1
     2    18    16    1
     3    16    14    1
     4    14    15    2
     5    14     8    1
     6     8     9    1
     7     9    10    1
     8    10    11    1
     9    11     7    1
    10     7     1    1
    11     1     2   ar
    12     2     3   ar
    13     3     4   ar
    14     4     5   ar
    15     5    19    1
    16    19    20    1
    17    20    21   ar
    18    21    22   ar
    19    22    23   ar
    20    23    24   ar
    21    24    25   ar
    22     5     6   ar
    23    11    12    1
    24    12    13    1
    25    13     8    1
    26     6     1   ar
    27    25    20   ar
@<TRIPOS>MOLECULE
*****
 25 27 0 0 0
SMALL
GASTEIGER

@<TRIPOS>ATOM
      1 C          62.3288   89.5460   11.3732 C.ar    1  UNL1       -0.0031
      2 C          62.8406   90.3047   10.1847 C.ar    1  UNL1       -0.0027
      3 C          63.7771   91.4602   10.3790 C.ar    1  UNL1        0.0029
      4 C          64.2017   91.8571   11.7618 C.ar    1  UNL1        0.0375
      5 C          63.6900   91.0985   12.9503 C.ar    1  UNL1        0.1450
      6 C          62.7535   89.9429   12.7560 C.ar    1  UNL1        0.0346
      7 C          61.3924   88.3905   11.1790 C.3     1  UNL1        0.0992
      8 C          63.0091   84.1968   10.9570 C.3     1  UNL1        0.1018
      9 C          62.7652   84.8369   12.2914 C.3     1  UNL1        0.0285
     10 C          62.2263   86.2348   12.3654 C.3     1  UNL1        0.0729
     11 N          61.9313   86.9926   11.1050 N.3     1  UNL1       -0.2689
     12 C          62.1752   86.3525    9.7706 C.3     1  UNL1        0.0729
     13 C          62.7141   84.9546    9.6966 C.3     1  UNL1        0.0285
     14 C          63.5480   82.7989   10.8830 C.2     1  UNL1        0.3165
     15 O          64.9146   82.5510   10.3166 O.2     1  UNL1       -0.2501
     16 O          62.7203   81.6490   11.3754 O.3     1  UNL1       -0.4485
     17 C          61.9250   81.5067   13.8447 C.3     1  UNL1        0.0513
     18 C          62.9060   81.1352   12.7724 C.3     1  UNL1        0.2086
     19 O          64.1146   91.4955   14.3330 O.3     1  UNL1       -0.4535
     20 C          65.5468   91.8486   14.6054 C.ar    1  UNL1        0.1453
     21 C          66.6009   91.5495   13.5810 C.ar    1  UNL1        0.0375
     22 C          68.0331   91.9026   13.8534 C.ar    1  UNL1        0.0031
     23 C          68.4112   92.5547   15.1502 C.ar    1  UNL1        0.0002
     24 C          67.3571   92.8538   16.1746 C.ar    1  UNL1        0.0031
     25 C          65.9249   92.5007   15.9023 C.ar    1  UNL1        0.0375
@<TRIPOS>BOND
     1    17    18    1
     2    18    16    1
     3    16    14    1
     4    14    15    2
     5    14     8    1
     6     8     9    1
     7     9    10    1
     8    10    11    1
     9    11     7    1
    10     7     1    1
    11     1     2   ar
    12     2     3   ar
    13     3     4   ar
    14     4     5   ar
    15     5    19    1
    16    19    20    1
    17    20    21   ar
    18    21    22   ar
    19    22    23   ar
    20    23    24   ar
    21    24    25   ar
    22     5     6   ar
    23    11    12    1
    24    12    13    1
    25    13     8    1
    26     6     1   ar
    27    25    20   ar
