@<TRIPOS>MOLECULE
*****
 35 38 0 0 0
SMALL
GASTEIGER

@<TRIPOS>ATOM
      1 C          62.7583   90.0014   12.7069 C.ar    1  UNL1        0.2019
      2 N          61.7914   90.0766   11.5626 N.ar    1  UNL1       -0.2135
      3 C          61.7257   88.7222   10.9213 C.ar    1  UNL1        0.1001
      4 C          60.9421   88.2018    9.7530 C.ar    1  UNL1        0.0252
      5 C          61.0849   86.7690    9.3326 C.ar    1  UNL1        0.0547
      6 C          62.0113   85.8567   10.0806 C.ar    1  UNL1        0.0061
      7 C          62.7949   86.3771   11.2490 C.ar    1  UNL1        0.0189
      8 C          62.6521   87.8099   11.6693 C.ar    1  UNL1        0.0802
      9 N          63.2902   88.6005   12.7728 N.ar    1  UNL1       -0.2953
     10 C          60.3013   86.2485    8.1642 C.2     1  UNL1        0.2428
     11 N          58.8484   86.5935    8.0221 N.am    1  UNL1       -0.3253
     12 O          60.9705   85.3831    7.1381 O.2     1  UNL1       -0.2704
     13 H          58.4092   87.1616    8.6956 H       1  UNL1        0.1453
     14 H          58.3341   86.2519    7.2552 H       1  UNL1        0.1453
     15 N          63.1283   91.1291   13.6242 N.pl3   1  UNL1       -0.2839
     16 H          62.4278   91.6061   14.1252 H       1  UNL1        0.1550
     17 C          67.4399   92.3320   14.0856 C.ar    1  UNL1        0.1388
     18 C          66.6591   91.8672   15.2791 C.ar    1  UNL1        0.0382
     19 C          65.2219   91.4662   15.1252 C.ar    1  UNL1        0.0178
     20 C          64.5655   91.5301   13.7780 C.ar    1  UNL1        0.0506
     21 C          65.3463   91.9950   12.5846 C.ar    1  UNL1        0.0178
     22 C          66.7835   92.3959   12.7384 C.ar    1  UNL1        0.0382
     23 C          69.3557   93.3280   15.5306 C.3     1  UNL1        0.2525
     24 O          68.8771   92.7330   14.2395 O.3     1  UNL1       -0.4714
     25 C          64.2856   88.0812   13.7677 C.3     1  UNL1        0.1354
     26 C          63.8200   87.5783   15.1019 C.ar    1  UNL1        0.0044
     27 C          63.3222   88.5446   16.1356 C.ar    1  UNL1       -0.0024
     28 C          62.8566   88.0418   17.4699 C.ar    1  UNL1       -0.0003
     29 C          62.8889   86.5725   17.7705 C.ar    1  UNL1       -0.0001
     30 C          63.3867   85.6063   16.7369 C.ar    1  UNL1        0.0036
     31 C          63.8523   86.1091   15.4026 C.ar    1  UNL1        0.0693
     32 C          64.3501   85.1428   14.3690 C.3     1  UNL1        0.4183
     33 F          64.8479   84.1764   13.3354 F       1  UNL1       -0.1659
     34 F          65.7648   85.4582   14.7555 F       1  UNL1       -0.1659
     35 F          62.9355   84.8274   13.9826 F       1  UNL1       -0.1659
@<TRIPOS>BOND
     1    23    24    1
     2    24    17    1
     3    17    18   ar
     4    18    19   ar
     5    19    20   ar
     6    20    15    1
     7    15     1    1
     8     1     2   ar
     9     2     3   ar
    10     3     4   ar
    11     4     5   ar
    12     5    10    1
    13    10    11   am
    14    10    12    2
    15     5     6   ar
    16     6     7   ar
    17     7     8   ar
    18     8     9   ar
    19     9    25    1
    20    25    26    1
    21    26    27   ar
    22    27    28   ar
    23    28    29   ar
    24    29    30   ar
    25    30    31   ar
    26    31    32    1
    27    32    33    1
    28    32    34    1
    29    32    35    1
    30    20    21   ar
    31    21    22   ar
    32    22    17   ar
    33     9     1   ar
    34    31    26   ar
    35     8     3   ar
    36    15    16    1
    37    11    13    1
    38    11    14    1
@<TRIPOS>MOLECULE
*****
 35 38 0 0 0
SMALL
GASTEIGER

@<TRIPOS>ATOM
      1 C          63.0956   89.9170   12.3680 C.ar    1  UNL1        0.2019
      2 N          62.1008   90.0876   11.2584 N.ar    1  UNL1       -0.2135
      3 C          61.7612   88.7267   10.7268 C.ar    1  UNL1        0.1001
      4 C          60.8386   88.2780    9.6325 C.ar    1  UNL1        0.0252
      5 C          60.7011   86.8176    9.3193 C.ar    1  UNL1        0.0547
      6 C          61.4860   85.8058   10.1004 C.ar    1  UNL1        0.0061
      7 C          62.4085   86.2544   11.1947 C.ar    1  UNL1        0.0189
      8 C          62.5461   87.7149   11.5079 C.ar    1  UNL1        0.0802
      9 N          63.3708   88.4505   12.5222 N.ar    1  UNL1       -0.2953
     10 C          59.7785   86.3689    8.2249 C.2     1  UNL1        0.2428
     11 N          60.2436   85.3575    7.2195 N.am    1  UNL1       -0.3253
     12 O          58.3909   86.9316    8.1359 O.2     1  UNL1       -0.2704
     13 H          61.1543   84.9882    7.2780 H       1  UNL1        0.1453
     14 H          59.6381   85.0630    6.5013 H       1  UNL1        0.1453
     15 N          63.7076   91.0192   13.1807 N.pl3   1  UNL1       -0.2839
     16 H          63.4955   91.1006   14.1386 H       1  UNL1        0.1550
     17 C          66.5135   93.9538   11.2403 C.ar    1  UNL1        0.1388
     18 C          66.5327   93.7696   12.7288 C.ar    1  UNL1        0.0382
     19 C          65.5974   92.7914   13.3756 C.ar    1  UNL1        0.0178
     20 C          64.6429   91.9974   12.5339 C.ar    1  UNL1        0.0506
     21 C          64.6237   92.1815   11.0453 C.ar    1  UNL1        0.0178
     22 C          65.5591   93.1598   10.3985 C.ar    1  UNL1        0.0382
     23 C          67.7345   94.8374    9.1240 C.3     1  UNL1        0.2525
     24 O          67.4489   94.9320   10.5935 O.3     1  UNL1       -0.4714
     25 C          64.3065   87.8288   13.5162 C.3     1  UNL1        0.1354
     26 C          63.8320   87.5289   14.9071 C.ar    1  UNL1        0.0044
     27 C          63.4540   88.6504   15.8288 C.ar    1  UNL1       -0.0024
     28 C          62.9795   88.3506   17.2198 C.ar    1  UNL1       -0.0003
     29 C          62.8829   86.9291   17.6892 C.ar    1  UNL1       -0.0001
     30 C          63.2609   85.8077   16.7676 C.ar    1  UNL1        0.0036
     31 C          63.7354   86.1075   15.3766 C.ar    1  UNL1        0.0693
     32 C          64.1133   84.9860   14.4550 C.3     1  UNL1        0.4183
     33 F          64.4911   83.8645   13.5334 F       1  UNL1       -0.1659
     34 F          65.5636   85.2378   14.7433 F       1  UNL1       -0.1659
     35 F          62.6630   84.7343   14.1666 F       1  UNL1       -0.1659
@<TRIPOS>BOND
     1    23    24    1
     2    24    17    1
     3    17    18   ar
     4    18    19   ar
     5    19    20   ar
     6    20    15    1
     7    15     1    1
     8     1     2   ar
     9     2     3   ar
    10     3     4   ar
    11     4     5   ar
    12     5    10    1
    13    10    11   am
    14    10    12    2
    15     5     6   ar
    16     6     7   ar
    17     7     8   ar
    18     8     9   ar
    19     9    25    1
    20    25    26    1
    21    26    27   ar
    22    27    28   ar
    23    28    29   ar
    24    29    30   ar
    25    30    31   ar
    26    31    32    1
    27    32    33    1
    28    32    34    1
    29    32    35    1
    30    20    21   ar
    31    21    22   ar
    32    22    17   ar
    33     9     1   ar
    34    31    26   ar
    35     8     3   ar
    36    15    16    1
    37    11    13    1
    38    11    14    1
@<TRIPOS>MOLECULE
*****
 35 38 0 0 0
SMALL
GASTEIGER

@<TRIPOS>ATOM
      1 C          64.2911   90.6167   14.4665 C.ar    1  UNL1        0.2019
      2 N          65.6804   91.1626   14.3180 N.ar    1  UNL1       -0.2135
      3 C          65.8049   91.7452   12.9414 C.ar    1  UNL1        0.1001
      4 C          66.9436   92.4209   12.2368 C.ar    1  UNL1        0.0252
      5 C          66.7701   92.9108   10.8297 C.ar    1  UNL1        0.0547
      6 C          65.4578   92.7249   10.1273 C.ar    1  UNL1        0.0061
      7 C          64.3191   92.0492   10.8320 C.ar    1  UNL1        0.0189
      8 C          64.4926   91.5593   12.2390 C.ar    1  UNL1        0.0802
      9 N          63.5571   90.8619   13.1815 N.ar    1  UNL1       -0.2953
     10 C          67.9089   93.5866   10.1250 C.2     1  UNL1        0.2428
     11 N          69.1612   92.8203    9.8176 N.am    1  UNL1       -0.3253
     12 O          67.7953   95.0285    9.7277 O.2     1  UNL1       -0.2704
     13 H          69.2358   91.8739   10.0783 H       1  UNL1        0.1453
     14 H          69.9086   93.2638    9.3550 H       1  UNL1        0.1453
     15 N          63.7339   89.9437   15.6857 N.pl3   1  UNL1       -0.2839
     16 H          63.3863   90.4848   16.4311 H       1  UNL1        0.1550
     17 C          63.6507   85.4514   15.9363 C.ar    1  UNL1        0.1388
     18 C          64.3587   86.1262   14.7989 C.ar    1  UNL1        0.0382
     19 C          64.3864   87.6236   14.7154 C.ar    1  UNL1        0.0178
     20 C          63.7061   88.4463   15.7692 C.ar    1  UNL1        0.0506
     21 C          62.9982   87.7715   16.9066 C.ar    1  UNL1        0.0178
     22 C          62.9705   86.2741   16.9901 C.ar    1  UNL1        0.0382
     23 C          63.0135   83.1520   14.9084 C.3     1  UNL1        0.2525
     24 O          63.6230   83.9540   16.0198 O.3     1  UNL1       -0.4714
     25 C          62.1368   90.4772   12.8903 C.3     1  UNL1        0.1354
     26 C          61.8437   89.2560   12.0702 C.ar    1  UNL1        0.0044
     27 C          62.8702   88.1687   11.9504 C.ar    1  UNL1       -0.0024
     28 C          62.5771   86.9474   11.1303 C.ar    1  UNL1       -0.0003
     29 C          61.2574   86.8134   10.4299 C.ar    1  UNL1       -0.0001
     30 C          60.2309   87.9005   10.5497 C.ar    1  UNL1        0.0036
     31 C          60.5240   89.1218   11.3698 C.ar    1  UNL1        0.0693
     32 C          59.4975   90.2090   11.4895 C.3     1  UNL1        0.4183
     33 F          58.4710   91.2961   11.6091 F       1  UNL1       -0.1659
     34 F          58.9378   89.5458   12.7130 F       1  UNL1       -0.1659
     35 F          60.0571   90.8721   10.2659 F       1  UNL1       -0.1659
@<TRIPOS>BOND
     1    23    24    1
     2    24    17    1
     3    17    18   ar
     4    18    19   ar
     5    19    20   ar
     6    20    15    1
     7    15     1    1
     8     1     2   ar
     9     2     3   ar
    10     3     4   ar
    11     4     5   ar
    12     5    10    1
    13    10    11   am
    14    10    12    2
    15     5     6   ar
    16     6     7   ar
    17     7     8   ar
    18     8     9   ar
    19     9    25    1
    20    25    26    1
    21    26    27   ar
    22    27    28   ar
    23    28    29   ar
    24    29    30   ar
    25    30    31   ar
    26    31    32    1
    27    32    33    1
    28    32    34    1
    29    32    35    1
    30    20    21   ar
    31    21    22   ar
    32    22    17   ar
    33     9     1   ar
    34    31    26   ar
    35     8     3   ar
    36    15    16    1
    37    11    13    1
    38    11    14    1
@<TRIPOS>MOLECULE
*****
 35 38 0 0 0
SMALL
GASTEIGER

@<TRIPOS>ATOM
      1 C          63.5483   89.3027   13.4002 C.ar    1  UNL1        0.2019
      2 N          63.9512   88.3810   14.5129 N.ar    1  UNL1       -0.2135
      3 C          63.7534   86.9708   14.0414 C.ar    1  UNL1        0.1001
      4 C          63.9837   85.6476   14.7093 C.ar    1  UNL1        0.0252
      5 C          63.6887   84.3745   13.9730 C.ar    1  UNL1        0.0547
      6 C          63.1635   84.4246   12.5688 C.ar    1  UNL1        0.0061
      7 C          62.9333   85.7478   11.9010 C.ar    1  UNL1        0.0189
      8 C          63.2282   87.0209   12.6373 C.ar    1  UNL1        0.0802
      9 N          63.1015   88.4621   12.2410 N.ar    1  UNL1       -0.2953
     10 C          63.9190   83.0512   14.6408 C.2     1  UNL1        0.2428
     11 N          64.6830   82.9846   15.9300 N.am    1  UNL1       -0.3253
     12 O          63.3852   81.7946   14.0195 O.2     1  UNL1       -0.2704
     13 H          65.0333   83.8094   16.3377 H       1  UNL1        0.1453
     14 H          64.8341   82.1161   16.3683 H       1  UNL1        0.1453
     15 N          63.5856   90.8017   13.4397 N.pl3   1  UNL1       -0.2839
     16 H          62.9163   91.2971   13.9649 H       1  UNL1        0.1550
     17 C          66.7570   93.0344   11.1577 C.ar    1  UNL1        0.1388
     18 C          66.9988   92.6369   12.5838 C.ar    1  UNL1        0.0382
     19 C          65.9417   91.8927   13.3444 C.ar    1  UNL1        0.0178
     20 C          64.6427   91.5459   12.6791 C.ar    1  UNL1        0.0506
     21 C          64.4010   91.9434   11.2530 C.ar    1  UNL1        0.0178
     22 C          65.4582   92.6876   10.4924 C.ar    1  UNL1        0.0382
     23 C          68.4920   93.1308    9.2263 C.3     1  UNL1        0.2525
     24 O          67.8142   93.7786   10.3971 O.3     1  UNL1       -0.4714
     25 C          62.6135   88.9729   10.9178 C.3     1  UNL1        0.1354
     26 C          61.7306   88.1143   10.0616 C.ar    1  UNL1        0.0044
     27 C          62.3303   87.0290    9.2174 C.ar    1  UNL1       -0.0024
     28 C          61.4474   86.1703    8.3613 C.ar    1  UNL1       -0.0003
     29 C          59.9646   86.3969    8.3492 C.ar    1  UNL1       -0.0001
     30 C          59.3649   87.4821    9.1933 C.ar    1  UNL1        0.0036
     31 C          60.2478   88.3408   10.0495 C.ar    1  UNL1        0.0693
     32 C          59.6480   89.4260   10.8936 C.3     1  UNL1        0.4183
     33 F          59.0481   90.5111   11.7378 F       1  UNL1       -0.1659
     34 F          59.9069   90.4196    9.8002 F       1  UNL1       -0.1659
     35 F          59.3891   88.4324   11.9871 F       1  UNL1       -0.1659
@<TRIPOS>BOND
     1    23    24    1
     2    24    17    1
     3    17    18   ar
     4    18    19   ar
     5    19    20   ar
     6    20    15    1
     7    15     1    1
     8     1     2   ar
     9     2     3   ar
    10     3     4   ar
    11     4     5   ar
    12     5    10    1
    13    10    11   am
    14    10    12    2
    15     5     6   ar
    16     6     7   ar
    17     7     8   ar
    18     8     9   ar
    19     9    25    1
    20    25    26    1
    21    26    27   ar
    22    27    28   ar
    23    28    29   ar
    24    29    30   ar
    25    30    31   ar
    26    31    32    1
    27    32    33    1
    28    32    34    1
    29    32    35    1
    30    20    21   ar
    31    21    22   ar
    32    22    17   ar
    33     9     1   ar
    34    31    26   ar
    35     8     3   ar
    36    15    16    1
    37    11    13    1
    38    11    14    1
@<TRIPOS>MOLECULE
*****
 35 38 0 0 0
SMALL
GASTEIGER

@<TRIPOS>ATOM
      1 C          62.2421   88.5651   11.5383 C.ar    1  UNL1        0.2019
      2 N          61.9962   89.7262   10.6209 N.ar    1  UNL1       -0.2135
      3 C          61.0968   89.2603    9.5145 C.ar    1  UNL1        0.1001
      4 C          60.5201   89.9683    8.3245 C.ar    1  UNL1        0.0252
      5 C          59.6334   89.2274    7.3681 C.ar    1  UNL1        0.0547
      6 C          59.3235   87.7785    7.6017 C.ar    1  UNL1        0.0061
      7 C          59.9002   87.0705    8.7916 C.ar    1  UNL1        0.0189
      8 C          60.7869   87.8114    9.7480 C.ar    1  UNL1        0.0802
      9 N          61.4947   87.3818   10.9988 N.ar    1  UNL1       -0.2953
     10 C          59.0566   89.9354    6.1781 C.2     1  UNL1        0.2428
     11 N          57.5695   90.0654    6.0308 N.am    1  UNL1       -0.3253
     12 O          59.9669   90.5134    5.1353 O.2     1  UNL1       -0.2704
     13 H          56.9721   89.6860    6.7152 H       1  UNL1        0.1453
     14 H          57.1909   90.5301    5.2498 H       1  UNL1        0.1453
     15 N          63.0871   88.5842   12.7775 N.pl3   1  UNL1       -0.2839
     16 H          63.0955   87.8052   13.3795 H       1  UNL1        0.1550
     17 C          65.5832   92.2016   13.7436 C.ar    1  UNL1        0.1388
     18 C          64.8483   92.1243   12.4382 C.ar    1  UNL1        0.0382
     19 C          64.0163   90.9185   12.1161 C.ar    1  UNL1        0.0178
     20 C          63.9191   89.7900   13.0995 C.ar    1  UNL1        0.0506
     21 C          64.6539   89.8673   14.4049 C.ar    1  UNL1        0.0178
     22 C          65.4860   91.0732   14.7269 C.ar    1  UNL1        0.0382
     23 C          67.5587   93.2940   15.0297 C.3     1  UNL1        0.2525
     24 O          66.4152   93.4075   14.0656 O.3     1  UNL1       -0.4714
     25 C          61.4611   86.0096   11.6038 C.3     1  UNL1        0.1354
     26 C          62.5056   84.9997   11.2312 C.ar    1  UNL1        0.0044
     27 C          62.8368   84.7609    9.7877 C.ar    1  UNL1       -0.0024
     28 C          63.8813   83.7510    9.4150 C.ar    1  UNL1       -0.0003
     29 C          64.5948   82.9799   10.4857 C.ar    1  UNL1       -0.0001
     30 C          64.2636   83.2186   11.9290 C.ar    1  UNL1        0.0036
     31 C          63.2191   84.2286   12.3018 C.ar    1  UNL1        0.0693
     32 C          62.8880   84.4673   13.7452 C.3     1  UNL1        0.4183
     33 F          62.5568   84.7059   15.1885 F       1  UNL1       -0.1659
     34 F          63.7930   85.6635   13.7549 F       1  UNL1       -0.1659
     35 F          61.9830   83.2711   13.7354 F       1  UNL1       -0.1659
@<TRIPOS>BOND
     1    23    24    1
     2    24    17    1
     3    17    18   ar
     4    18    19   ar
     5    19    20   ar
     6    20    15    1
     7    15     1    1
     8     1     2   ar
     9     2     3   ar
    10     3     4   ar
    11     4     5   ar
    12     5    10    1
    13    10    11   am
    14    10    12    2
    15     5     6   ar
    16     6     7   ar
    17     7     8   ar
    18     8     9   ar
    19     9    25    1
    20    25    26    1
    21    26    27   ar
    22    27    28   ar
    23    28    29   ar
    24    29    30   ar
    25    30    31   ar
    26    31    32    1
    27    32    33    1
    28    32    34    1
    29    32    35    1
    30    20    21   ar
    31    21    22   ar
    32    22    17   ar
    33     9     1   ar
    34    31    26   ar
    35     8     3   ar
    36    15    16    1
    37    11    13    1
    38    11    14    1
@<TRIPOS>MOLECULE
*****
 35 38 0 0 0
SMALL
GASTEIGER

@<TRIPOS>ATOM
      1 C          63.3563   88.9325   12.7778 C.ar    1  UNL1        0.2019
      2 N          63.7169   88.0107   13.9048 N.ar    1  UNL1       -0.2135
      3 C          63.5211   86.6009   13.4313 C.ar    1  UNL1        0.1001
      4 C          63.7192   85.2777   14.1094 C.ar    1  UNL1        0.0252
      5 C          63.4356   84.0051   13.3678 C.ar    1  UNL1        0.0547
      6 C          62.9540   84.0556   11.9482 C.ar    1  UNL1        0.0061
      7 C          62.7559   85.3788   11.2700 C.ar    1  UNL1        0.0189
      8 C          63.0395   86.6514   12.0116 C.ar    1  UNL1        0.0802
      9 N          62.9376   88.0925   11.6077 N.ar    1  UNL1       -0.2953
     10 C          63.6336   82.6818   14.0459 C.2     1  UNL1        0.2428
     11 N          63.3893   81.4085   13.2916 N.am    1  UNL1       -0.3253
     12 O          64.0760   82.6318   15.4783 O.2     1  UNL1       -0.2704
     13 H          63.0990   81.4413   12.3515 H       1  UNL1        0.1453
     14 H          63.5193   80.5400   13.7366 H       1  UNL1        0.1453
     15 N          63.4056   90.4313   12.8144 N.pl3   1  UNL1       -0.2839
     16 H          62.6078   90.9561   12.5749 H       1  UNL1        0.1550
     17 C          67.2003   92.5288   14.0188 C.ar    1  UNL1        0.1388
     18 C          66.5520   91.5541   14.9567 C.ar    1  UNL1        0.0382
     19 C          65.2871   90.8550   14.5553 C.ar    1  UNL1        0.0178
     20 C          64.6705   91.1304   13.2158 C.ar    1  UNL1        0.0506
     21 C          65.3189   92.1050   12.2779 C.ar    1  UNL1        0.0178
     22 C          66.5838   92.8042   12.6794 C.ar    1  UNL1        0.0382
     23 C          68.9207   93.1926   15.8490 C.3     1  UNL1        0.2525
     24 O          68.4653   93.2279   14.4203 O.3     1  UNL1       -0.4714
     25 C          62.4948   88.6037   10.2688 C.3     1  UNL1        0.1354
     26 C          61.4745   87.8426    9.4754 C.ar    1  UNL1        0.0044
     27 C          61.9083   86.7328    8.5642 C.ar    1  UNL1       -0.0024
     28 C          60.8880   85.9717    7.7707 C.ar    1  UNL1       -0.0003
     29 C          59.4338   86.3203    7.8884 C.ar    1  UNL1       -0.0001
     30 C          59.0000   87.4300    8.7996 C.ar    1  UNL1        0.0036
     31 C          60.0203   88.1912    9.5931 C.ar    1  UNL1        0.0693
     32 C          59.5864   89.3009   10.5042 C.3     1  UNL1        0.4183
     33 F          59.1525   90.4107   11.4153 F       1  UNL1       -0.1659
     34 F          59.3713   88.3096   11.6092 F       1  UNL1       -0.1659
     35 F          59.8015   90.2922    9.3993 F       1  UNL1       -0.1659
@<TRIPOS>BOND
     1    23    24    1
     2    24    17    1
     3    17    18   ar
     4    18    19   ar
     5    19    20   ar
     6    20    15    1
     7    15     1    1
     8     1     2   ar
     9     2     3   ar
    10     3     4   ar
    11     4     5   ar
    12     5    10    1
    13    10    11   am
    14    10    12    2
    15     5     6   ar
    16     6     7   ar
    17     7     8   ar
    18     8     9   ar
    19     9    25    1
    20    25    26    1
    21    26    27   ar
    22    27    28   ar
    23    28    29   ar
    24    29    30   ar
    25    30    31   ar
    26    31    32    1
    27    32    33    1
    28    32    34    1
    29    32    35    1
    30    20    21   ar
    31    21    22   ar
    32    22    17   ar
    33     9     1   ar
    34    31    26   ar
    35     8     3   ar
    36    15    16    1
    37    11    13    1
    38    11    14    1
@<TRIPOS>MOLECULE
*****
 35 38 0 0 0
SMALL
GASTEIGER

@<TRIPOS>ATOM
      1 C          62.9457   88.5830   12.0050 C.ar    1  UNL1        0.2019
      2 N          63.5423   87.9115   13.2063 N.ar    1  UNL1       -0.2135
      3 C          63.3363   86.4329   13.0610 C.ar    1  UNL1        0.1001
      4 C          63.7144   85.2759   13.9376 C.ar    1  UNL1        0.0252
      5 C          63.3685   83.8765   13.5230 C.ar    1  UNL1        0.0547
      6 C          62.6446   83.6340   12.2318 C.ar    1  UNL1        0.0061
      7 C          62.2665   84.7910   11.3552 C.ar    1  UNL1        0.0189
      8 C          62.6124   86.1904   11.7698 C.ar    1  UNL1        0.0802
      9 N          62.3710   87.5192   11.1172 N.ar    1  UNL1       -0.2953
     10 C          63.7466   82.7194   14.3996 C.2     1  UNL1        0.2428
     11 N          63.4134   81.3189   13.9781 N.am    1  UNL1       -0.3253
     12 O          64.4577   82.9628   15.6976 O.2     1  UNL1       -0.2704
     13 H          62.9467   81.1591   13.1261 H       1  UNL1        0.1453
     14 H          63.6616   80.5595   14.5534 H       1  UNL1        0.1453
     15 N          62.9272   90.0589   11.7382 N.pl3   1  UNL1       -0.2839
     16 H          62.2025   90.4529   11.2008 H       1  UNL1        0.1550
     17 C          66.1837   92.6859   13.3948 C.ar    1  UNL1        0.1388
     18 C          65.5122   91.6766   14.2781 C.ar    1  UNL1        0.0382
     19 C          64.4267   90.8009   13.7259 C.ar    1  UNL1        0.0178
     20 C          64.0126   90.9346   12.2904 C.ar    1  UNL1        0.0506
     21 C          64.6841   91.9440   11.4070 C.ar    1  UNL1        0.0178
     22 C          65.7696   92.8197   11.9593 C.ar    1  UNL1        0.0382
     23 C          67.9799   93.1699   15.2085 C.3     1  UNL1        0.2525
     24 O          67.2692   93.5616   13.9470 O.3     1  UNL1       -0.4714
     25 C          61.6767   87.7447    9.8068 C.3     1  UNL1        0.1354
     26 C          61.7408   86.6982    8.7342 C.ar    1  UNL1        0.0044
     27 C          62.9282   85.7857    8.6466 C.ar    1  UNL1       -0.0024
     28 C          62.9923   84.7391    7.5740 C.ar    1  UNL1       -0.0003
     29 C          61.8691   84.6050    6.5889 C.ar    1  UNL1       -0.0001
     30 C          60.6818   85.5175    6.6764 C.ar    1  UNL1        0.0036
     31 C          60.6177   86.5641    7.7490 C.ar    1  UNL1        0.0693
     32 C          59.4303   87.4765    7.8365 C.3     1  UNL1        0.4183
     33 F          58.2430   88.3889    7.9240 F       1  UNL1       -0.1659
     34 F          60.1898   88.5360    7.0945 F       1  UNL1       -0.1659
     35 F          58.6708   86.4170    8.5786 F       1  UNL1       -0.1659
@<TRIPOS>BOND
     1    23    24    1
     2    24    17    1
     3    17    18   ar
     4    18    19   ar
     5    19    20   ar
     6    20    15    1
     7    15     1    1
     8     1     2   ar
     9     2     3   ar
    10     3     4   ar
    11     4     5   ar
    12     5    10    1
    13    10    11   am
    14    10    12    2
    15     5     6   ar
    16     6     7   ar
    17     7     8   ar
    18     8     9   ar
    19     9    25    1
    20    25    26    1
    21    26    27   ar
    22    27    28   ar
    23    28    29   ar
    24    29    30   ar
    25    30    31   ar
    26    31    32    1
    27    32    33    1
    28    32    34    1
    29    32    35    1
    30    20    21   ar
    31    21    22   ar
    32    22    17   ar
    33     9     1   ar
    34    31    26   ar
    35     8     3   ar
    36    15    16    1
    37    11    13    1
    38    11    14    1
@<TRIPOS>MOLECULE
*****
 35 38 0 0 0
SMALL
GASTEIGER

@<TRIPOS>ATOM
      1 C          62.9170   87.7593   12.4509 C.ar    1  UNL1        0.2019
      2 N          63.6050   87.9396   13.7716 N.ar    1  UNL1       -0.2135
      3 C          64.2257   89.3050   13.7883 C.ar    1  UNL1        0.1001
      4 C          65.0288   90.0298   14.8274 C.ar    1  UNL1        0.0252
      5 C          65.5274   91.4182   14.5562 C.ar    1  UNL1        0.0547
      6 C          65.2231   92.0818   13.2458 C.ar    1  UNL1        0.0061
      7 C          64.4201   91.3570   12.2067 C.ar    1  UNL1        0.0189
      8 C          63.9214   89.9686   12.4780 C.ar    1  UNL1        0.0802
      9 N          63.1126   89.0133   11.6514 N.ar    1  UNL1       -0.2953
     10 C          66.3305   92.1431   15.5953 C.2     1  UNL1        0.2428
     11 N          65.6351   92.8788   16.7022 N.am    1  UNL1       -0.3253
     12 O          67.8289   92.1322   15.5276 O.2     1  UNL1       -0.2704
     13 H          64.6516   92.8859   16.7466 H       1  UNL1        0.1453
     14 H          66.1621   93.3546   17.3842 H       1  UNL1        0.1453
     15 N          62.1655   86.5392   12.0076 N.pl3   1  UNL1       -0.2839
     16 H          61.3571   86.6333   11.4535 H       1  UNL1        0.1550
     17 C          63.6056   82.4489   13.2099 C.ar    1  UNL1        0.1388
     18 C          63.5778   82.8386   11.7616 C.ar    1  UNL1        0.0382
     19 C          63.0978   84.2020   11.3609 C.ar    1  UNL1        0.0178
     20 C          62.6455   85.1758   12.4083 C.ar    1  UNL1        0.0506
     21 C          62.6733   84.7862   13.8566 C.ar    1  UNL1        0.0178
     22 C          63.1533   83.4227   14.2573 C.ar    1  UNL1        0.0382
     23 C          63.1131   79.9481   13.7133 C.3     1  UNL1        0.2525
     24 O          64.0856   81.0855   13.6106 O.3     1  UNL1       -0.4714
     25 C          62.5909   89.2674   10.2682 C.3     1  UNL1        0.1354
     26 C          61.6963   88.2611    9.6073 C.ar    1  UNL1        0.0044
     27 C          62.2910   87.1344    8.8156 C.ar    1  UNL1       -0.0024
     28 C          61.3964   86.1280    8.1547 C.ar    1  UNL1       -0.0003
     29 C          59.9070   86.2483    8.2855 C.ar    1  UNL1       -0.0001
     30 C          59.3122   87.3750    9.0773 C.ar    1  UNL1        0.0036
     31 C          60.2068   88.3814    9.7382 C.ar    1  UNL1        0.0693
     32 C          59.6120   89.5080   10.5299 C.3     1  UNL1        0.4183
     33 F          59.0172   90.6347   11.3215 F       1  UNL1       -0.1659
     34 F          59.4485   88.5939   11.7078 F       1  UNL1       -0.1659
     35 F          59.7756   90.4221    9.3519 F       1  UNL1       -0.1659
@<TRIPOS>BOND
     1    23    24    1
     2    24    17    1
     3    17    18   ar
     4    18    19   ar
     5    19    20   ar
     6    20    15    1
     7    15     1    1
     8     1     2   ar
     9     2     3   ar
    10     3     4   ar
    11     4     5   ar
    12     5    10    1
    13    10    11   am
    14    10    12    2
    15     5     6   ar
    16     6     7   ar
    17     7     8   ar
    18     8     9   ar
    19     9    25    1
    20    25    26    1
    21    26    27   ar
    22    27    28   ar
    23    28    29   ar
    24    29    30   ar
    25    30    31   ar
    26    31    32    1
    27    32    33    1
    28    32    34    1
    29    32    35    1
    30    20    21   ar
    31    21    22   ar
    32    22    17   ar
    33     9     1   ar
    34    31    26   ar
    35     8     3   ar
    36    15    16    1
    37    11    13    1
    38    11    14    1
@<TRIPOS>MOLECULE
*****
 35 38 0 0 0
SMALL
GASTEIGER

@<TRIPOS>ATOM
      1 C          63.1022   88.4664   12.8297 C.ar    1  UNL1        0.2019
      2 N          62.2058   89.2113   11.8854 N.ar    1  UNL1       -0.2135
      3 C          61.6454   88.2255   10.9035 C.ar    1  UNL1        0.1001
      4 C          60.7053   88.3860    9.7457 C.ar    1  UNL1        0.0252
      5 C          60.3152   87.1924    8.9253 C.ar    1  UNL1        0.0547
      6 C          60.8652   85.8382    9.2628 C.ar    1  UNL1        0.0061
      7 C          61.8053   85.6777   10.4205 C.ar    1  UNL1        0.0189
      8 C          62.1953   86.8714   11.2409 C.ar    1  UNL1        0.0802
      9 N          63.0957   87.0203   12.4314 N.ar    1  UNL1       -0.2953
     10 C          59.3751   87.3528    7.7675 C.2     1  UNL1        0.2428
     11 N          58.4929   86.2123    7.3541 N.am    1  UNL1       -0.3253
     12 O          59.3173   88.6538    7.0231 O.2     1  UNL1       -0.2704
     13 H          58.5309   85.3584    7.8427 H       1  UNL1        0.1453
     14 H          57.8759   86.3176    6.5942 H       1  UNL1        0.1453
     15 N          63.8701   89.0629   13.9718 N.pl3   1  UNL1       -0.2839
     16 H          63.8991   88.6003   14.8404 H       1  UNL1        0.1550
     17 C          66.0417   92.9665   13.4279 C.ar    1  UNL1        0.1388
     18 C          65.1554   92.4430   12.3369 C.ar    1  UNL1        0.0382
     19 C          64.4316   91.1418   12.5181 C.ar    1  UNL1        0.0178
     20 C          64.5940   90.3641   13.7905 C.ar    1  UNL1        0.0506
     21 C          65.4803   90.8876   14.8816 C.ar    1  UNL1        0.0178
     22 C          66.2042   92.1889   14.7002 C.ar    1  UNL1        0.0382
     23 C          66.4161   95.1667   12.0978 C.3     1  UNL1        0.2525
     24 O          66.7656   94.2678   13.2465 O.3     1  UNL1       -0.4714
     25 C          63.8560   85.9167   13.1052 C.3     1  UNL1        0.1354
     26 C          63.3259   84.5139   13.0756 C.ar    1  UNL1        0.0044
     27 C          63.3620   83.7252   11.8001 C.ar    1  UNL1       -0.0024
     28 C          62.8319   82.3223   11.7705 C.ar    1  UNL1       -0.0003
     29 C          62.2657   81.7081   13.0163 C.ar    1  UNL1       -0.0001
     30 C          62.2296   82.4967   14.2917 C.ar    1  UNL1        0.0036
     31 C          62.7597   83.8996   14.3214 C.ar    1  UNL1        0.0693
     32 C          62.7236   84.6882   15.5969 C.3     1  UNL1        0.4183
     33 F          62.6876   85.4767   16.8723 F       1  UNL1       -0.1659
     34 F          61.2420   84.8663   15.4448 F       1  UNL1       -0.1659
     35 F          64.2052   84.5100   15.7489 F       1  UNL1       -0.1659
@<TRIPOS>BOND
     1    23    24    1
     2    24    17    1
     3    17    18   ar
     4    18    19   ar
     5    19    20   ar
     6    20    15    1
     7    15     1    1
     8     1     2   ar
     9     2     3   ar
    10     3     4   ar
    11     4     5   ar
    12     5    10    1
    13    10    11   am
    14    10    12    2
    15     5     6   ar
    16     6     7   ar
    17     7     8   ar
    18     8     9   ar
    19     9    25    1
    20    25    26    1
    21    26    27   ar
    22    27    28   ar
    23    28    29   ar
    24    29    30   ar
    25    30    31   ar
    26    31    32    1
    27    32    33    1
    28    32    34    1
    29    32    35    1
    30    20    21   ar
    31    21    22   ar
    32    22    17   ar
    33     9     1   ar
    34    31    26   ar
    35     8     3   ar
    36    15    16    1
    37    11    13    1
    38    11    14    1
