@<TRIPOS>MOLECULE
*****
 34 37 0 0 0
SMALL
GASTEIGER

@<TRIPOS>ATOM
      1 C          65.6241   92.2989   12.7731 C.3     1  UNL1        0.1587
      2 C          65.2624   91.0997   13.5982 C.3     1  UNL1        0.0661
      3 C          64.1961   90.1571   13.1242 C.3     1  UNL1        0.1009
      4 N          63.4916   90.4138   11.8250 N.am    1  UNL1       -0.2438
      5 C          63.8534   91.6130   10.9999 C.2     1  UNL1        0.4051
      6 O          63.1489   91.8697    9.7007 O.2     1  UNL1       -0.2262
      7 O          64.9196   92.5556   11.4739 O.3     1  UNL1       -0.4375
      8 C          66.5681   92.4807   13.9246 C.ar    1  UNL1        0.0138
      9 C          66.8524   93.8560   14.4515 C.ar    1  UNL1       -0.0010
     10 C          67.7963   94.0378   15.6029 C.ar    1  UNL1       -0.0002
     11 C          68.4560   92.8442   16.2275 C.ar    1  UNL1       -0.0000
     12 C          68.1718   91.4688   15.7006 C.ar    1  UNL1       -0.0002
     13 C          67.2278   91.2871   14.5492 C.ar    1  UNL1       -0.0010
     14 C          62.4254   89.4712   11.3511 C.3     1  UNL1        0.1011
     15 C          61.2807   89.9857   10.5295 C.3     1  UNL1        0.0265
     16 C          62.5039   88.0142   11.6986 C.ar    1  UNL1       -0.0042
     17 C          61.7299   87.0093   10.8979 C.ar    1  UNL1       -0.0027
     18 C          61.8084   85.5523   11.2454 C.ar    1  UNL1       -0.0002
     19 C          62.6610   85.1000   12.3937 C.ar    1  UNL1        0.0010
     20 C          63.4351   86.1048   13.1945 C.ar    1  UNL1       -0.0002
     21 C          63.3566   87.5619   12.8469 C.ar    1  UNL1       -0.0027
     22 C          62.7395   83.6430   12.7413 C.2     1  UNL1        0.0128
     23 C          62.8200   82.6153   11.6517 C.2     1  UNL1       -0.0152
     24 C          62.8986   81.1583   11.9992 C.3     1  UNL1        0.1132
     25 C          62.8966   80.7288   13.4364 C.2     1  UNL1        0.2500
     26 O          62.9752   79.2718   13.7839 O.2     1  UNL1       -0.2726
     27 N          62.8161   81.7565   14.5261 N.am    1  UNL1       -0.1776
     28 C          62.7376   83.2136   14.1785 C.2     1  UNL1        0.0883
     29 C          66.3137   93.5614   12.3478 C.3     1  UNL1        0.0566
     30 C          66.8065   93.7087   10.9388 C.3     1  UNL1        0.0586
     31 C          66.1294   95.0437   10.8416 C.3     1  UNL1        0.0132
     32 C          67.4835   92.3738   11.0360 C.3     1  UNL1        0.0132
     33 C          67.7921   94.0036    8.1207 C.1     1  UNL1       -0.0142
     34 C          67.2992   93.8561    9.5297 C.1     1  UNL1       -0.0797
@<TRIPOS>BOND
     1    33    34    3
     2    34    30    1
     3    30    31    1
     4    30    32    1
     5    30    29    1
     6     1    29    1
     7     1     8    1
     8     8     9   ar
     9     9    10   ar
    10    10    11   ar
    11    11    12   ar
    12    12    13   ar
    13     1     2    1
    14     2     3    1
    15     3     4    1
    16     4    14    1
    17    14    15    1
    18    14    16    1
    19    16    17   ar
    20    17    18   ar
    21    18    19   ar
    22    19    22    1
    23    22    23    2
    24    23    24    1
    25    24    25    1
    26    25    26    2
    27    25    27    1
    28    27    28    2
    29    19    20   ar
    30    20    21   ar
    31     4     5   am
    32     5     6    2
    33     5     7    1
    34     7     1    1
    35    13     8   ar
    36    21    16   ar
    37    28    22    1
@<TRIPOS>MOLECULE
*****
 34 37 0 0 0
SMALL
GASTEIGER

@<TRIPOS>ATOM
      1 C          62.9702   85.4548   12.8069 C.3     1  UNL1        0.1587
      2 C          63.9259   85.6052   13.9531 C.3     1  UNL1        0.0661
      3 C          64.2706   86.9713   14.4679 C.3     1  UNL1        0.1009
      4 N          63.6596   88.1869   13.8363 N.am    1  UNL1       -0.2438
      5 C          62.7039   88.0365   12.6900 C.2     1  UNL1        0.4051
      6 O          62.0929   89.2522   12.0584 O.2     1  UNL1       -0.2262
      7 O          62.3592   86.6704   12.1753 O.3     1  UNL1       -0.4375
      8 C          63.2875   84.0129   13.0723 C.ar    1  UNL1        0.0138
      9 C          62.2130   83.0854   13.5571 C.ar    1  UNL1       -0.0010
     10 C          62.5303   81.6436   13.8226 C.ar    1  UNL1       -0.0002
     11 C          63.9222   81.1293   13.6032 C.ar    1  UNL1       -0.0000
     12 C          64.9967   82.0568   13.1184 C.ar    1  UNL1       -0.0002
     13 C          64.6794   83.4986   12.8530 C.ar    1  UNL1       -0.0010
     14 C          64.0044   89.5530   14.3510 C.3     1  UNL1        0.1011
     15 C          63.7894   89.8856   15.7978 C.3     1  UNL1        0.0265
     16 C          64.5640   90.5865   13.4190 C.ar    1  UNL1       -0.0042
     17 C          63.8586   90.8967   12.1322 C.ar    1  UNL1       -0.0027
     18 C          64.4182   91.9302   11.2002 C.ar    1  UNL1       -0.0002
     19 C          65.6836   92.6535   11.5550 C.ar    1  UNL1        0.0010
     20 C          66.3892   92.3433   12.8419 C.ar    1  UNL1       -0.0002
     21 C          65.8294   91.3098   13.7738 C.ar    1  UNL1       -0.0027
     22 C          66.2433   93.6869   10.6231 C.2     1  UNL1        0.0128
     23 C          67.3208   93.3133    9.6488 C.2     1  UNL1       -0.0152
     24 C          67.8806   94.3467    8.7168 C.3     1  UNL1        0.1132
     25 C          67.3629   95.7539    8.7591 C.2     1  UNL1        0.2500
     26 O          67.9226   96.7874    7.8272 O.2     1  UNL1       -0.2726
     27 N          66.2853   96.1277    9.7334 N.am    1  UNL1       -0.1776
     28 C          65.7255   95.0942   10.6654 C.2     1  UNL1        0.0883
     29 C          62.1246   84.8036   11.7528 C.3     1  UNL1        0.0566
     30 C          62.4264   85.0332   10.3015 C.3     1  UNL1        0.0586
     31 C          63.5923   84.0940   10.3953 C.3     1  UNL1        0.0132
     32 C          61.2606   85.9724   10.2077 C.3     1  UNL1        0.0132
     33 C          63.0301   85.4926    7.3990 C.1     1  UNL1       -0.0142
     34 C          62.7283   85.2629    8.8503 C.1     1  UNL1       -0.0797
@<TRIPOS>BOND
     1    33    34    3
     2    34    30    1
     3    30    31    1
     4    30    32    1
     5    30    29    1
     6     1    29    1
     7     1     8    1
     8     8     9   ar
     9     9    10   ar
    10    10    11   ar
    11    11    12   ar
    12    12    13   ar
    13     1     2    1
    14     2     3    1
    15     3     4    1
    16     4    14    1
    17    14    15    1
    18    14    16    1
    19    16    17   ar
    20    17    18   ar
    21    18    19   ar
    22    19    22    1
    23    22    23    2
    24    23    24    1
    25    24    25    1
    26    25    26    2
    27    25    27    1
    28    27    28    2
    29    19    20   ar
    30    20    21   ar
    31     4     5   am
    32     5     6    2
    33     5     7    1
    34     7     1    1
    35    13     8   ar
    36    21    16   ar
    37    28    22    1
@<TRIPOS>MOLECULE
*****
 34 37 0 0 0
SMALL
GASTEIGER

@<TRIPOS>ATOM
      1 C          62.4713   85.9325    9.4979 C.3     1  UNL1        0.1587
      2 C          61.6319   87.0644    8.9842 C.3     1  UNL1        0.0661
      3 C          61.4124   88.2810    9.8337 C.3     1  UNL1        0.1009
      4 N          62.0324   88.3656   11.1970 N.am    1  UNL1       -0.2438
      5 C          62.8718   87.2336   11.7108 C.2     1  UNL1        0.4051
      6 O          63.4917   87.3182   13.0741 O.2     1  UNL1       -0.2262
      7 O          63.0913   86.0170   10.8612 O.3     1  UNL1       -0.4375
      8 C          62.0979   85.3892    8.1505 C.ar    1  UNL1        0.0138
      9 C          63.1483   84.7793    7.2703 C.ar    1  UNL1       -0.0010
     10 C          62.7748   84.2361    5.9230 C.ar    1  UNL1       -0.0002
     11 C          61.3510   84.3027    5.4558 C.ar    1  UNL1       -0.0000
     12 C          60.3006   84.9126    6.3360 C.ar    1  UNL1       -0.0002
     13 C          60.6741   85.4558    7.6833 C.ar    1  UNL1       -0.0010
     14 C          61.8129   89.5822   12.0466 C.3     1  UNL1        0.1011
     15 C          60.4229   90.1000   12.2702 C.3     1  UNL1        0.0265
     16 C          62.9832   90.2810   12.6725 C.ar    1  UNL1       -0.0042
     17 C          63.8666   91.1597   11.8374 C.ar    1  UNL1       -0.0027
     18 C          65.0369   91.8585   12.4633 C.ar    1  UNL1       -0.0002
     19 C          65.3240   91.6786   13.9246 C.ar    1  UNL1        0.0010
     20 C          64.4407   90.7998   14.7599 C.ar    1  UNL1       -0.0002
     21 C          63.2703   90.1011   14.1338 C.ar    1  UNL1       -0.0027
     22 C          66.4943   92.3773   14.5506 C.2     1  UNL1        0.0128
     23 C          67.4400   91.6150   15.4307 C.2     1  UNL1       -0.0152
     24 C          68.6104   92.3138   16.0567 C.3     1  UNL1        0.1132
     25 C          68.8352   93.7749   15.8027 C.2     1  UNL1        0.2500
     26 O          70.0055   94.4736   16.4287 O.2     1  UNL1       -0.2726
     27 N          67.8896   94.5373   14.9226 N.am    1  UNL1       -0.1776
     28 C          66.7191   93.8385   14.2965 C.2     1  UNL1        0.0883
     29 C          63.1811   84.6118    9.5437 C.3     1  UNL1        0.0566
     30 C          63.0068   83.7073   10.7275 C.3     1  UNL1        0.0586
     31 C          61.7544   84.4419   11.1044 C.3     1  UNL1        0.0132
     32 C          64.2591   82.9728   10.3507 C.3     1  UNL1        0.0132
     33 C          62.6581   81.8983   13.0953 C.1     1  UNL1       -0.0142
     34 C          62.8325   82.8029   11.9114 C.1     1  UNL1       -0.0797
@<TRIPOS>BOND
     1    33    34    3
     2    34    30    1
     3    30    31    1
     4    30    32    1
     5    30    29    1
     6     1    29    1
     7     1     8    1
     8     8     9   ar
     9     9    10   ar
    10    10    11   ar
    11    11    12   ar
    12    12    13   ar
    13     1     2    1
    14     2     3    1
    15     3     4    1
    16     4    14    1
    17    14    15    1
    18    14    16    1
    19    16    17   ar
    20    17    18   ar
    21    18    19   ar
    22    19    22    1
    23    22    23    2
    24    23    24    1
    25    24    25    1
    26    25    26    2
    27    25    27    1
    28    27    28    2
    29    19    20   ar
    30    20    21   ar
    31     4     5   am
    32     5     6    2
    33     5     7    1
    34     7     1    1
    35    13     8   ar
    36    21    16   ar
    37    28    22    1
