@<TRIPOS>MOLECULE
*****
 34 38 0 0 0
SMALL
GASTEIGER

@<TRIPOS>ATOM
      1 C          64.7091   91.6366   12.8801 C.ar    1  UNL1        0.0503
      2 C          65.3967   91.8191   14.2006 C.ar    1  UNL1        0.0143
      3 C          64.9210   91.0618   15.4048 C.ar    1  UNL1       -0.0029
      4 C          63.7577   90.1220   15.2885 C.ar    1  UNL1       -0.0208
      5 C          63.0700   89.9395   13.9679 C.ar    1  UNL1       -0.0029
      6 C          63.5457   90.6968   12.7637 C.ar    1  UNL1        0.0143
      7 O          67.6484   91.9951   12.3982 O.2     1  UNL1       -0.2727
      8 C          66.6545   92.5731   11.4349 C.2     1  UNL1        0.2485
      9 N          65.1848   92.3939   11.6758 N.am    1  UNL1       -0.2823
     10 H          64.5325   92.7733   11.0436 H       1  UNL1        0.1549
     11 C          67.1302   93.3305   10.2307 C.3     1  UNL1        0.1811
     12 C          68.1786   92.8742    9.2596 C.3     1  UNL1        0.0400
     13 C          68.3374   93.9388    8.2149 C.3     1  UNL1        0.0480
     14 C          67.3872   95.0529    8.5402 C.ar    1  UNL1        0.0577
     15 C          66.8981   96.3994    8.0955 C.ar    1  UNL1        0.0368
     16 C          65.8497   96.8556    9.0665 C.ar    1  UNL1        0.1213
     17 N          65.6909   95.7911   10.1113 N.ar    1  UNL1       -0.1676
     18 N          66.6411   94.6769    9.7860 N.ar    1  UNL1       -0.2480
     19 C          63.2820   89.3647   16.4928 C.3     1  UNL1        0.0420
     20 C          63.2524   87.8652   16.4723 C.3     1  UNL1        0.0585
     21 C          62.6436   86.9809   17.5198 C.3     1  UNL1        0.0175
     22 C          62.8414   85.5558   17.0956 C.3     1  UNL1        0.0199
     23 C          63.5725   85.5593   15.7858 C.3     1  UNL1        0.0856
     24 N          63.8265   86.9866   15.4006 N.3     1  UNL1       -0.2971
     25 H          63.3760   87.1897   14.5083 H       1  UNL1        0.1233
     26 C          63.9783   84.3482   14.9994 C.3     1  UNL1        0.1484
     27 O          64.6566   83.2003   15.6866 O.3     1  UNL1       -0.3786
     28 H          64.8497   82.5043   15.0391 H       1  UNL1        0.2108
     29 C          63.7057   84.2849   13.5257 C.ar    1  UNL1        0.0247
     30 C          64.5027   83.3596   12.6546 C.ar    1  UNL1        0.0012
     31 C          64.2301   83.2963   11.1809 C.ar    1  UNL1        0.0204
     32 C          63.1607   84.1584   10.5783 C.ar    1  UNL1        0.0989
     33 N          62.3638   85.0838   11.4494 N.ar    1  UNL1       -0.2426
     34 C          62.6363   85.1470   12.9231 C.ar    1  UNL1        0.0969
@<TRIPOS>BOND
     1     7     8    2
     2     8     9   am
     3     9     1    1
     4     1     2   ar
     5     2     3   ar
     6     3     4   ar
     7     4    19    1
     8    20    19    1
     9    20    21    1
    10    21    22    1
    11    23    22    1
    12    23    26    1
    13    26    27    1
    14    26    29    1
    15    29    30   ar
    16    30    31   ar
    17    31    32   ar
    18    32    33   ar
    19    33    34   ar
    20    23    24    1
    21     4     5   ar
    22     5     6   ar
    23    11     8    1
    24    11    12    1
    25    12    13    1
    26    13    14    1
    27    14    15   ar
    28    15    16   ar
    29    16    17   ar
    30    17    18   ar
    31     6     1   ar
    32    18    11    1
    33    24    20    1
    34    18    14   ar
    35    34    29   ar
    36     9    10    1
    37    27    28    1
    38    24    25    1
@<TRIPOS>MOLECULE
*****
 34 38 0 0 0
SMALL
GASTEIGER

@<TRIPOS>ATOM
      1 C          60.6419   87.1543    9.1495 C.ar    1  UNL1        0.0503
      2 C          60.8357   88.6332    9.3083 C.ar    1  UNL1        0.0143
      3 C          60.1296   89.5851    8.3889 C.ar    1  UNL1       -0.0029
      4 C          59.2298   89.0582    7.3107 C.ar    1  UNL1       -0.0208
      5 C          59.0359   87.5792    7.1519 C.ar    1  UNL1       -0.0029
      6 C          59.7420   86.6272    8.0713 C.ar    1  UNL1        0.0143
      7 O          62.9421   85.5171    8.1352 O.2     1  UNL1       -0.2727
      8 C          62.4981   85.3837    9.5617 C.2     1  UNL1        0.2485
      9 N          61.3479   86.2023   10.0689 N.am    1  UNL1       -0.2823
     10 H          61.0564   86.1148   11.0052 H       1  UNL1        0.1549
     11 C          63.2041   84.4318   10.4812 C.3     1  UNL1        0.1811
     12 C          64.0468   83.2634   10.0628 C.3     1  UNL1        0.0400
     13 C          64.5549   82.5906   11.3035 C.3     1  UNL1        0.0480
     14 C          64.0263   83.3431   12.4885 C.ar    1  UNL1        0.0577
     15 C          64.0136   83.3923   13.9877 C.ar    1  UNL1        0.0368
     16 C          63.1709   84.5606   14.4059 C.ar    1  UNL1        0.1213
     17 N          62.6628   85.2334   13.1653 N.ar    1  UNL1       -0.1676
     18 N          63.1914   84.4810   11.9803 N.ar    1  UNL1       -0.2480
     19 C          58.5237   90.0101    6.3913 C.3     1  UNL1        0.0420
     20 C          59.3108   90.8309    5.4131 C.3     1  UNL1        0.0585
     21 C          58.8306   92.0668    4.7119 C.3     1  UNL1        0.0175
     22 C          59.9393   92.5596    3.8298 C.3     1  UNL1        0.0199
     23 C          61.1046   91.6282    3.9859 C.3     1  UNL1        0.0856
     24 N          60.7162   90.5598    4.9645 N.3     1  UNL1       -0.2971
     25 H          61.3456   90.5798    5.7668 H       1  UNL1        0.1233
     26 C          62.4263   91.7447    3.2863 C.3     1  UNL1        0.1484
     27 O          63.6297   91.0359    3.8336 O.3     1  UNL1       -0.3786
     28 H          64.3960   91.2147    3.2663 H       1  UNL1        0.2108
     29 C          62.5447   92.5700    2.0394 C.ar    1  UNL1        0.0247
     30 C          61.6470   92.2947    0.8696 C.ar    1  UNL1        0.0012
     31 C          61.7654   93.1200   -0.3773 C.ar    1  UNL1        0.0204
     32 C          62.7815   94.2207   -0.4545 C.ar    1  UNL1        0.0989
     33 N          63.6792   94.4961    0.7153 N.ar    1  UNL1       -0.2426
     34 C          63.5609   93.6708    1.9622 C.ar    1  UNL1        0.0969
@<TRIPOS>BOND
     1     7     8    2
     2     8     9   am
     3     9     1    1
     4     1     2   ar
     5     2     3   ar
     6     3     4   ar
     7     4    19    1
     8    20    19    1
     9    20    21    1
    10    21    22    1
    11    23    22    1
    12    23    26    1
    13    26    27    1
    14    26    29    1
    15    29    30   ar
    16    30    31   ar
    17    31    32   ar
    18    32    33   ar
    19    33    34   ar
    20    23    24    1
    21     4     5   ar
    22     5     6   ar
    23    11     8    1
    24    11    12    1
    25    12    13    1
    26    13    14    1
    27    14    15   ar
    28    15    16   ar
    29    16    17   ar
    30    17    18   ar
    31     6     1   ar
    32    18    11    1
    33    24    20    1
    34    18    14   ar
    35    34    29   ar
    36     9    10    1
    37    27    28    1
    38    24    25    1
@<TRIPOS>MOLECULE
*****
 34 38 0 0 0
SMALL
GASTEIGER

@<TRIPOS>ATOM
      1 C          63.5402   86.8779   15.3874 C.ar    1  UNL1        0.0503
      2 C          64.3122   87.6372   14.3495 C.ar    1  UNL1        0.0143
      3 C          64.5360   89.1117   14.5107 C.ar    1  UNL1       -0.0029
      4 C          63.9878   89.8267   15.7099 C.ar    1  UNL1       -0.0208
      5 C          63.2157   89.0674   16.7479 C.ar    1  UNL1       -0.0029
      6 C          62.9919   87.5930   16.5866 C.ar    1  UNL1        0.0143
      7 O          62.7618   85.7625   12.7134 O.2     1  UNL1       -0.2727
      8 C          62.9272   84.8458   13.8891 C.2     1  UNL1        0.2485
      9 N          63.3164   85.4035   15.2261 N.am    1  UNL1       -0.2823
     10 H          63.4250   84.8018   15.9978 H       1  UNL1        0.1549
     11 C          62.7035   83.3713   13.7278 C.3     1  UNL1        0.1811
     12 C          62.1886   82.4371   14.7826 C.3     1  UNL1        0.0400
     13 C          62.1222   81.0607   14.1901 C.3     1  UNL1        0.0480
     14 C          62.5960   81.1441   12.7693 C.ar    1  UNL1        0.0577
     15 C          62.8477   80.3450   11.5251 C.ar    1  UNL1        0.0368
     16 C          63.3625   81.2792   10.4705 C.ar    1  UNL1        0.1213
     17 N          63.4289   82.6557   11.0629 N.ar    1  UNL1       -0.1676
     18 N          62.9552   82.5722   12.4836 N.ar    1  UNL1       -0.2480
     19 C          64.2115   91.3012   15.8711 C.3     1  UNL1        0.0420
     20 C          65.2769   91.9900   15.0708 C.3     1  UNL1        0.0585
     21 C          66.4177   92.7903   15.6258 C.3     1  UNL1        0.0175
     22 C          67.2343   93.2944   14.4730 C.3     1  UNL1        0.0199
     23 C          66.5982   92.8057   13.2055 C.3     1  UNL1        0.0856
     24 N          65.3884   91.9995   13.5750 N.3     1  UNL1       -0.2971
     25 H          65.4896   91.0452   13.2294 H       1  UNL1        0.1233
     26 C          67.0861   93.0757   11.8130 C.3     1  UNL1        0.1484
     27 O          67.9797   92.0858   11.1263 O.3     1  UNL1       -0.3786
     28 H          68.2013   92.4110   10.2397 H       1  UNL1        0.2108
     29 C          66.6805   94.3356   11.1073 C.ar    1  UNL1        0.0247
     30 C          66.1405   95.4943   11.8921 C.ar    1  UNL1        0.0012
     31 C          65.7348   96.7542   11.1864 C.ar    1  UNL1        0.0204
     32 C          65.8692   96.8555    9.6958 C.ar    1  UNL1        0.0989
     33 N          66.4092   95.6967    8.9110 N.ar    1  UNL1       -0.2426
     34 C          66.8148   94.4368    9.6167 C.ar    1  UNL1        0.0969
@<TRIPOS>BOND
     1     7     8    2
     2     8     9   am
     3     9     1    1
     4     1     2   ar
     5     2     3   ar
     6     3     4   ar
     7     4    19    1
     8    20    19    1
     9    20    21    1
    10    21    22    1
    11    23    22    1
    12    23    26    1
    13    26    27    1
    14    26    29    1
    15    29    30   ar
    16    30    31   ar
    17    31    32   ar
    18    32    33   ar
    19    33    34   ar
    20    23    24    1
    21     4     5   ar
    22     5     6   ar
    23    11     8    1
    24    11    12    1
    25    12    13    1
    26    13    14    1
    27    14    15   ar
    28    15    16   ar
    29    16    17   ar
    30    17    18   ar
    31     6     1   ar
    32    18    11    1
    33    24    20    1
    34    18    14   ar
    35    34    29   ar
    36     9    10    1
    37    27    28    1
    38    24    25    1
@<TRIPOS>MOLECULE
*****
 34 38 0 0 0
SMALL
GASTEIGER

@<TRIPOS>ATOM
      1 C          60.6083   87.1892    9.0693 C.ar    1  UNL1        0.0503
      2 C          59.7378   86.6887    7.9550 C.ar    1  UNL1        0.0143
      3 C          59.0774   87.6621    7.0242 C.ar    1  UNL1       -0.0029
      4 C          59.2875   89.1359    7.2076 C.ar    1  UNL1       -0.0208
      5 C          60.1580   89.6364    8.3220 C.ar    1  UNL1       -0.0029
      6 C          60.8184   88.6631    9.2528 C.ar    1  UNL1        0.0143
      7 O          62.9921   85.6164    8.1506 O.2     1  UNL1       -0.2727
      8 C          62.4606   85.4294    9.5408 C.2     1  UNL1        0.2485
      9 N          61.2687   86.2158   10.0001 N.am    1  UNL1       -0.2823
     10 H          60.9199   86.0931   10.9125 H       1  UNL1        0.1549
     11 C          63.1210   84.4561   10.4716 C.3     1  UNL1        0.1811
     12 C          63.9811   83.2951   10.0682 C.3     1  UNL1        0.0400
     13 C          64.4289   82.5943   11.3166 C.3     1  UNL1        0.0480
     14 C          63.8457   83.3221   12.4914 C.ar    1  UNL1        0.0577
     15 C          63.7620   83.3387   13.9890 C.ar    1  UNL1        0.0368
     16 C          62.9020   84.4996   14.3923 C.ar    1  UNL1        0.1213
     17 N          62.4541   85.2005   13.1440 N.ar    1  UNL1       -0.1676
     18 N          63.0374   84.4727   11.9692 N.ar    1  UNL1       -0.2480
     19 C          58.6271   90.1092    6.2768 C.3     1  UNL1        0.0420
     20 C          59.4543   90.8953    5.3033 C.3     1  UNL1        0.0585
     21 C          60.9088   90.6802    5.0071 C.3     1  UNL1        0.0175
     22 C          61.3257   91.6865    3.9758 C.3     1  UNL1        0.0199
     23 C          60.1287   92.5235    3.6346 C.3     1  UNL1        0.0856
     24 N          58.9721   92.0346    4.4551 N.3     1  UNL1       -0.2971
     25 H          58.2224   91.7160    3.8412 H       1  UNL1        0.1233
     26 C          60.0944   93.6516    2.6465 C.3     1  UNL1        0.1484
     27 O          60.0155   95.0695    3.1293 O.3     1  UNL1       -0.3786
     28 H          60.0021   95.6701    2.3678 H       1  UNL1        0.2108
     29 C          60.1388   93.3616    1.1755 C.ar    1  UNL1        0.0247
     30 C          61.4589   93.2651    0.4696 C.ar    1  UNL1        0.0012
     31 C          61.5034   92.9751   -1.0014 C.ar    1  UNL1        0.0204
     32 C          60.2279   92.7817   -1.7667 C.ar    1  UNL1        0.0989
     33 N          58.9078   92.8783   -1.0608 N.ar    1  UNL1       -0.2426
     34 C          58.8633   93.1682    0.4102 C.ar    1  UNL1        0.0969
@<TRIPOS>BOND
     1     7     8    2
     2     8     9   am
     3     9     1    1
     4     1     2   ar
     5     2     3   ar
     6     3     4   ar
     7     4    19    1
     8    20    19    1
     9    20    21    1
    10    21    22    1
    11    23    22    1
    12    23    26    1
    13    26    27    1
    14    26    29    1
    15    29    30   ar
    16    30    31   ar
    17    31    32   ar
    18    32    33   ar
    19    33    34   ar
    20    23    24    1
    21     4     5   ar
    22     5     6   ar
    23    11     8    1
    24    11    12    1
    25    12    13    1
    26    13    14    1
    27    14    15   ar
    28    15    16   ar
    29    16    17   ar
    30    17    18   ar
    31     6     1   ar
    32    18    11    1
    33    24    20    1
    34    18    14   ar
    35    34    29   ar
    36     9    10    1
    37    27    28    1
    38    24    25    1
@<TRIPOS>MOLECULE
*****
 34 38 0 0 0
SMALL
GASTEIGER

@<TRIPOS>ATOM
      1 C          59.6408   92.3100    4.1002 C.ar    1  UNL1        0.0503
      2 C          58.2573   91.9259    4.5344 C.ar    1  UNL1        0.0143
      3 C          58.0602   90.7855    5.4886 C.ar    1  UNL1       -0.0029
      4 C          59.2466   90.0291    6.0086 C.ar    1  UNL1       -0.0208
      5 C          60.6301   90.4131    5.5744 C.ar    1  UNL1       -0.0029
      6 C          60.8272   91.5536    4.6202 C.ar    1  UNL1        0.0143
      7 O          61.7265   92.1249    1.9519 O.2     1  UNL1       -0.2727
      8 C          60.8808   93.3579    2.0718 C.2     1  UNL1        0.2485
      9 N          59.8379   93.4504    3.1460 N.am    1  UNL1       -0.2823
     10 H          59.2828   94.2597    3.2247 H       1  UNL1        0.1549
     11 C          61.0779   94.4983    1.1176 C.3     1  UNL1        0.1811
     12 C          60.1266   95.6367    0.8957 C.3     1  UNL1        0.0400
     13 C          60.7217   96.5426   -0.1413 C.3     1  UNL1        0.0480
     14 C          62.0407   95.9640   -0.5603 C.ar    1  UNL1        0.0577
     15 C          63.2237   96.1664   -1.4602 C.ar    1  UNL1        0.0368
     16 C          64.1749   95.0280   -1.2382 C.ar    1  UNL1        0.1213
     17 N          63.5798   94.1221   -0.2012 N.ar    1  UNL1       -0.1676
     18 N          62.2608   94.7006    0.2177 N.ar    1  UNL1       -0.2480
     19 C          59.0495   88.8887    6.9629 C.3     1  UNL1        0.0420
     20 C          59.9192   88.7695    8.1791 C.3     1  UNL1        0.0585
     21 C          60.8544   87.6380    8.4868 C.3     1  UNL1        0.0175
     22 C          61.5196   87.9302    9.7991 C.3     1  UNL1        0.0199
     23 C          60.9954   89.2424   10.3025 C.3     1  UNL1        0.0856
     24 N          60.0063   89.7611    9.3012 N.3     1  UNL1       -0.2971
     25 H          60.3180   90.6636    8.9423 H       1  UNL1        0.1233
     26 C          61.3909   89.9173   11.5823 C.3     1  UNL1        0.1484
     27 O          60.5150   89.7993   12.7943 O.3     1  UNL1       -0.3786
     28 H          60.9130   90.2906   13.5299 H       1  UNL1        0.2108
     29 C          62.6624   90.7103   11.6503 C.ar    1  UNL1        0.0247
     30 C          63.2751   91.2543   10.3938 C.ar    1  UNL1        0.0012
     31 C          64.5465   92.0472   10.4617 C.ar    1  UNL1        0.0204
     32 C          65.2053   92.2963   11.7861 C.ar    1  UNL1        0.0989
     33 N          64.5926   91.7523   13.0426 N.ar    1  UNL1       -0.2426
     34 C          63.3211   90.9593   12.9747 C.ar    1  UNL1        0.0969
@<TRIPOS>BOND
     1     7     8    2
     2     8     9   am
     3     9     1    1
     4     1     2   ar
     5     2     3   ar
     6     3     4   ar
     7     4    19    1
     8    20    19    1
     9    20    21    1
    10    21    22    1
    11    23    22    1
    12    23    26    1
    13    26    27    1
    14    26    29    1
    15    29    30   ar
    16    30    31   ar
    17    31    32   ar
    18    32    33   ar
    19    33    34   ar
    20    23    24    1
    21     4     5   ar
    22     5     6   ar
    23    11     8    1
    24    11    12    1
    25    12    13    1
    26    13    14    1
    27    14    15   ar
    28    15    16   ar
    29    16    17   ar
    30    17    18   ar
    31     6     1   ar
    32    18    11    1
    33    24    20    1
    34    18    14   ar
    35    34    29   ar
    36     9    10    1
    37    27    28    1
    38    24    25    1
@<TRIPOS>MOLECULE
*****
 34 38 0 0 0
SMALL
GASTEIGER

@<TRIPOS>ATOM
      1 C          65.0331   91.3884   14.3376 C.ar    1  UNL1        0.0503
      2 C          64.4613   91.8495   15.6454 C.ar    1  UNL1        0.0143
      3 C          63.7775   90.8695   16.5521 C.ar    1  UNL1       -0.0029
      4 C          63.6656   89.4285   16.1511 C.ar    1  UNL1       -0.0208
      5 C          64.2374   88.9673   14.8433 C.ar    1  UNL1       -0.0029
      6 C          64.9211   89.9473   13.9365 C.ar    1  UNL1        0.0143
      7 O          64.0337   91.7909   11.5377 O.2     1  UNL1       -0.2727
      8 C          65.2171   92.5695   12.0308 C.2     1  UNL1        0.2485
      9 N          65.7168   92.3683   13.4308 N.am    1  UNL1       -0.2823
     10 H          66.4935   92.8793   13.7544 H       1  UNL1        0.1549
     11 C          65.9008   93.5495   11.1240 C.3     1  UNL1        0.1811
     12 C          65.6299   95.0232   11.0538 C.3     1  UNL1        0.0400
     13 C          66.5372   95.6122   10.0146 C.3     1  UNL1        0.0480
     14 C          67.3688   94.5026    9.4426 C.ar    1  UNL1        0.0577
     15 C          68.4434   94.1810    8.4468 C.ar    1  UNL1        0.0368
     16 C          68.7143   92.7073    8.5170 C.ar    1  UNL1        0.1213
     17 N          67.8071   92.1182    9.5562 N.ar    1  UNL1       -0.1676
     18 N          66.9755   93.2278   10.1282 N.ar    1  UNL1       -0.2480
     19 C          62.9818   88.4486   17.0579 C.3     1  UNL1        0.0420
     20 C          62.8954   87.0022   16.6703 C.3     1  UNL1        0.0585
     21 C          61.8865   86.0132   17.1741 C.3     1  UNL1        0.0175
     22 C          62.1702   84.6905   16.5259 C.3     1  UNL1        0.0199
     23 C          63.3544   84.8621   15.6215 C.3     1  UNL1        0.0856
     24 N          63.8026   86.2908   15.7107 N.3     1  UNL1       -0.2971
     25 H          63.7464   86.7293   14.7914 H       1  UNL1        0.1233
     26 C          63.9806   83.7928   14.7762 C.3     1  UNL1        0.1484
     27 O          64.7983   82.7118   15.4186 O.3     1  UNL1       -0.3786
     28 H          65.1276   82.1065   14.7358 H       1  UNL1        0.2108
     29 C          63.7890   83.8045   13.2886 C.ar    1  UNL1        0.0247
     30 C          64.5956   82.8840   12.4212 C.ar    1  UNL1        0.0012
     31 C          64.4040   82.8957   10.9335 C.ar    1  UNL1        0.0204
     32 C          63.4058   83.8278   10.3132 C.ar    1  UNL1        0.0989
     33 N          62.5992   84.7482   11.1805 N.ar    1  UNL1       -0.2426
     34 C          62.7908   84.7366   12.6682 C.ar    1  UNL1        0.0969
@<TRIPOS>BOND
     1     7     8    2
     2     8     9   am
     3     9     1    1
     4     1     2   ar
     5     2     3   ar
     6     3     4   ar
     7     4    19    1
     8    20    19    1
     9    20    21    1
    10    21    22    1
    11    23    22    1
    12    23    26    1
    13    26    27    1
    14    26    29    1
    15    29    30   ar
    16    30    31   ar
    17    31    32   ar
    18    32    33   ar
    19    33    34   ar
    20    23    24    1
    21     4     5   ar
    22     5     6   ar
    23    11     8    1
    24    11    12    1
    25    12    13    1
    26    13    14    1
    27    14    15   ar
    28    15    16   ar
    29    16    17   ar
    30    17    18   ar
    31     6     1   ar
    32    18    11    1
    33    24    20    1
    34    18    14   ar
    35    34    29   ar
    36     9    10    1
    37    27    28    1
    38    24    25    1
@<TRIPOS>MOLECULE
*****
 34 38 0 0 0
SMALL
GASTEIGER

@<TRIPOS>ATOM
      1 C          62.1514   85.7729   11.0154 C.ar    1  UNL1        0.0503
      2 C          62.7204   86.6393   12.0995 C.ar    1  UNL1        0.0143
      3 C          62.8611   88.1169   11.8825 C.ar    1  UNL1       -0.0029
      4 C          62.4327   88.7280   10.5814 C.ar    1  UNL1       -0.0208
      5 C          61.8637   87.8615    9.4971 C.ar    1  UNL1       -0.0029
      6 C          61.7230   86.3839    9.7141 C.ar    1  UNL1        0.0143
      7 O          63.9568   84.3627   12.9525 O.2     1  UNL1       -0.2727
      8 C          62.9135   83.5903   12.2010 C.2     1  UNL1        0.2485
      9 N          62.0108   84.2953   11.2324 N.am    1  UNL1       -0.2823
     10 H          61.3260   83.7883   10.7392 H       1  UNL1        0.1549
     11 C          62.7729   82.1127   12.4180 C.3     1  UNL1        0.1811
     12 C          62.5331   81.4337   13.7339 C.3     1  UNL1        0.0400
     13 C          62.4593   79.9561   13.4863 C.3     1  UNL1        0.0480
     14 C          62.6536   79.7219   12.0175 C.ar    1  UNL1        0.0577
     15 C          62.7280   78.6639   10.9568 C.ar    1  UNL1        0.0368
     16 C          62.9678   79.3429    9.6410 C.ar    1  UNL1        0.1213
     17 N          63.0416   80.8205    9.8885 N.ar    1  UNL1       -0.1676
     18 N          62.8473   81.0547   11.3573 N.ar    1  UNL1       -0.2480
     19 C          62.5734   90.2055   10.3644 C.3     1  UNL1        0.0420
     20 C          63.5424   90.9963   11.1923 C.3     1  UNL1        0.0585
     21 C          64.4756   92.0556   10.6857 C.3     1  UNL1        0.0175
     22 C          65.2583   92.5806   11.8526 C.3     1  UNL1        0.0199
     23 C          64.8089   91.8457   13.0805 C.3     1  UNL1        0.0856
     24 N          63.7483   90.8665   12.6724 N.3     1  UNL1       -0.2971
     25 H          62.8783   91.0744   13.1625 H       1  UNL1        0.1233
     26 C          65.3286   92.0534   14.4722 C.3     1  UNL1        0.1484
     27 O          64.3959   91.9588   15.6431 O.3     1  UNL1       -0.3786
     28 H          64.8891   92.1180   16.4630 H       1  UNL1        0.2108
     29 C          66.7811   92.3559   14.6929 C.ar    1  UNL1        0.0247
     30 C          67.2122   93.1153   15.9126 C.ar    1  UNL1        0.0012
     31 C          68.6647   93.4177   16.1333 C.ar    1  UNL1        0.0204
     32 C          69.6862   92.9607   15.1345 C.ar    1  UNL1        0.0989
     33 N          69.2551   92.2013   13.9148 N.ar    1  UNL1       -0.2426
     34 C          67.8026   91.8989   13.6940 C.ar    1  UNL1        0.0969
@<TRIPOS>BOND
     1     7     8    2
     2     8     9   am
     3     9     1    1
     4     1     2   ar
     5     2     3   ar
     6     3     4   ar
     7     4    19    1
     8    20    19    1
     9    20    21    1
    10    21    22    1
    11    23    22    1
    12    23    26    1
    13    26    27    1
    14    26    29    1
    15    29    30   ar
    16    30    31   ar
    17    31    32   ar
    18    32    33   ar
    19    33    34   ar
    20    23    24    1
    21     4     5   ar
    22     5     6   ar
    23    11     8    1
    24    11    12    1
    25    12    13    1
    26    13    14    1
    27    14    15   ar
    28    15    16   ar
    29    16    17   ar
    30    17    18   ar
    31     6     1   ar
    32    18    11    1
    33    24    20    1
    34    18    14   ar
    35    34    29   ar
    36     9    10    1
    37    27    28    1
    38    24    25    1
@<TRIPOS>MOLECULE
*****
 34 38 0 0 0
SMALL
GASTEIGER

@<TRIPOS>ATOM
      1 C          61.4102   89.3986   11.0592 C.ar    1  UNL1        0.0503
      2 C          61.7791   88.1800   10.2663 C.ar    1  UNL1        0.0143
      3 C          61.1345   87.9274    8.9356 C.ar    1  UNL1       -0.0029
      4 C          60.1209   88.8935    8.3979 C.ar    1  UNL1       -0.0208
      5 C          59.7518   90.1122    9.1908 C.ar    1  UNL1       -0.0029
      6 C          60.3965   90.3647   10.5215 C.ar    1  UNL1        0.0143
      7 O          63.6941   91.3315   11.2767 O.2     1  UNL1       -0.2727
      8 C          63.1968   90.6176   12.4986 C.2     1  UNL1        0.2485
      9 N          62.0548   89.6511   12.3899 N.am    1  UNL1       -0.2823
     10 H          61.7284   89.1826   13.1918 H       1  UNL1        0.1549
     11 C          63.8415   90.8702   13.8293 C.3     1  UNL1        0.1811
     12 C          63.4861   90.1988   15.1228 C.3     1  UNL1        0.0400
     13 C          64.3797   90.7522   16.1930 C.3     1  UNL1        0.0480
     14 C          65.2873   91.7655   15.5609 C.ar    1  UNL1        0.0577
     15 C          66.4005   92.7337   15.8318 C.ar    1  UNL1        0.0368
     16 C          66.7559   93.4050   14.5383 C.ar    1  UNL1        0.1213
     17 N          65.8623   92.8517   13.4681 N.ar    1  UNL1       -0.1676
     18 N          64.9547   91.8384   14.1001 N.ar    1  UNL1       -0.2480
     19 C          59.4762   88.6409    7.0672 C.3     1  UNL1        0.0420
     20 C          59.0272   89.7946    6.2204 C.3     1  UNL1        0.0585
     21 C          57.6103   90.1152    5.8468 C.3     1  UNL1        0.0175
     22 C          57.6237   91.3491    4.9939 C.3     1  UNL1        0.0199
     23 C          59.0488   91.7910    4.8403 C.3     1  UNL1        0.0856
     24 N          59.9162   90.8303    5.5984 N.3     1  UNL1       -0.2971
     25 H          60.4299   91.3276    6.3258 H       1  UNL1        0.1233
     26 C          59.5232   92.9842    4.0649 C.3     1  UNL1        0.1484
     27 O          59.3449   94.3634    4.6271 O.3     1  UNL1       -0.3786
     28 H          59.7033   95.0152    4.0045 H       1  UNL1        0.2108
     29 C          60.1760   92.7982    2.7273 C.ar    1  UNL1        0.0247
     30 C          59.3474   92.8313    1.4773 C.ar    1  UNL1        0.0012
     31 C          60.0002   92.6453    0.1396 C.ar    1  UNL1        0.0204
     32 C          61.4815   92.4263    0.0519 C.ar    1  UNL1        0.0989
     33 N          62.3101   92.3932    1.3019 N.ar    1  UNL1       -0.2426
     34 C          61.6573   92.5792    2.6396 C.ar    1  UNL1        0.0969
@<TRIPOS>BOND
     1     7     8    2
     2     8     9   am
     3     9     1    1
     4     1     2   ar
     5     2     3   ar
     6     3     4   ar
     7     4    19    1
     8    20    19    1
     9    20    21    1
    10    21    22    1
    11    23    22    1
    12    23    26    1
    13    26    27    1
    14    26    29    1
    15    29    30   ar
    16    30    31   ar
    17    31    32   ar
    18    32    33   ar
    19    33    34   ar
    20    23    24    1
    21     4     5   ar
    22     5     6   ar
    23    11     8    1
    24    11    12    1
    25    12    13    1
    26    13    14    1
    27    14    15   ar
    28    15    16   ar
    29    16    17   ar
    30    17    18   ar
    31     6     1   ar
    32    18    11    1
    33    24    20    1
    34    18    14   ar
    35    34    29   ar
    36     9    10    1
    37    27    28    1
    38    24    25    1
@<TRIPOS>MOLECULE
*****
 34 38 0 0 0
SMALL
GASTEIGER

@<TRIPOS>ATOM
      1 C          62.1741   85.9392   11.4638 C.ar    1  UNL1        0.0503
      2 C          62.8305   86.8500   12.4586 C.ar    1  UNL1        0.0143
      3 C          63.0603   88.2925   12.1172 C.ar    1  UNL1       -0.0029
      4 C          62.6337   88.8241   10.7811 C.ar    1  UNL1       -0.0208
      5 C          61.9773   87.9134    9.7862 C.ar    1  UNL1       -0.0029
      6 C          61.7475   86.4709   10.1276 C.ar    1  UNL1        0.0143
      7 O          64.4625   84.0003   11.4027 O.2     1  UNL1       -0.2727
      8 C          63.0886   83.5273   11.7746 C.2     1  UNL1        0.2485
      9 N          61.9443   84.4968   11.8052 N.am    1  UNL1       -0.2823
     10 H          61.0425   84.1863   12.0493 H       1  UNL1        0.1549
     11 C          62.8588   82.0849   12.1160 C.3     1  UNL1        0.1811
     12 C          62.5320   81.5418   13.4756 C.3     1  UNL1        0.0400
     13 C          62.3866   80.0535   13.3575 C.3     1  UNL1        0.0480
     14 C          62.6236   79.6768   11.9251 C.ar    1  UNL1        0.0577
     15 C          62.6802   78.5241   10.9669 C.ar    1  UNL1        0.0368
     16 C          63.0069   79.0672    9.6073 C.ar    1  UNL1        0.1213
     17 N          63.1523   80.5555    9.7253 N.ar    1  UNL1       -0.1676
     18 N          62.9154   80.9322   11.1578 N.ar    1  UNL1       -0.2480
     19 C          62.8635   90.2666   10.4397 C.3     1  UNL1        0.0420
     20 C          63.7574   91.1080   11.3016 C.3     1  UNL1        0.0585
     21 C          64.0589   90.8738   12.7521 C.3     1  UNL1        0.0175
     22 C          64.9947   91.9525   13.2111 C.3     1  UNL1        0.0199
     23 C          65.2715   92.8534   12.0443 C.3     1  UNL1        0.0856
     24 N          64.5069   92.3315   10.8641 N.3     1  UNL1       -0.2971
     25 H          65.1526   92.0914   10.1119 H       1  UNL1        0.1233
     26 C          66.1575   94.0638   12.0556 C.3     1  UNL1        0.1484
     27 O          66.6531   94.6183   13.3583 O.3     1  UNL1       -0.3786
     28 H          67.2092   95.3947   13.1885 H       1  UNL1        0.2108
     29 C          66.5478   94.7197   10.7644 C.ar    1  UNL1        0.0247
     30 C          66.3107   96.1877   10.5671 C.ar    1  UNL1        0.0012
     31 C          66.7010   96.8436    9.2758 C.ar    1  UNL1        0.0204
     32 C          67.3284   96.0315    8.1817 C.ar    1  UNL1        0.0989
     33 N          67.5655   94.5635    8.3790 N.ar    1  UNL1       -0.2426
     34 C          67.1752   93.9076    9.6703 C.ar    1  UNL1        0.0969
@<TRIPOS>BOND
     1     7     8    2
     2     8     9   am
     3     9     1    1
     4     1     2   ar
     5     2     3   ar
     6     3     4   ar
     7     4    19    1
     8    20    19    1
     9    20    21    1
    10    21    22    1
    11    23    22    1
    12    23    26    1
    13    26    27    1
    14    26    29    1
    15    29    30   ar
    16    30    31   ar
    17    31    32   ar
    18    32    33   ar
    19    33    34   ar
    20    23    24    1
    21     4     5   ar
    22     5     6   ar
    23    11     8    1
    24    11    12    1
    25    12    13    1
    26    13    14    1
    27    14    15   ar
    28    15    16   ar
    29    16    17   ar
    30    17    18   ar
    31     6     1   ar
    32    18    11    1
    33    24    20    1
    34    18    14   ar
    35    34    29   ar
    36     9    10    1
    37    27    28    1
    38    24    25    1
