@<TRIPOS>MOLECULE
*****
 27 30 0 0 0
SMALL
GASTEIGER

@<TRIPOS>ATOM
      1 C          65.3218   92.5969   12.5561 C.ar    1  UNL1        0.1535
      2 C          66.0130   92.2775   13.8484 C.ar    1  UNL1        0.1332
      3 N          65.5880   91.0839   14.6512 N.ar    1  UNL1       -0.2392
      4 C          64.4716   90.2097   14.1617 C.ar    1  UNL1        0.1035
      5 C          63.7804   90.5291   12.8694 C.ar    1  UNL1        0.1019
      6 N          64.2054   91.7227   12.0666 N.ar    1  UNL1       -0.2274
      7 C          64.0466   89.0160   14.9646 C.ar    1  UNL1        0.0771
      8 C          63.3316   89.2058   16.2695 C.ar    1  UNL1        0.1628
      9 F          63.0417   90.5892   16.7716 F       1  UNL1       -0.2024
     10 C          62.9066   88.0121   17.0724 C.ar    1  UNL1        0.1286
     11 N          63.1965   86.6287   16.5703 N.ar    1  UNL1       -0.2376
     12 C          63.9115   86.4390   15.2654 C.ar    1  UNL1        0.1286
     13 C          64.3365   87.6326   14.4626 C.ar    1  UNL1        0.1628
     14 F          64.6952   87.3434   13.8120 F       1  UNL1       -0.2024
     15 C          62.6641   89.6549   12.3799 C.ar    1  UNL1        0.0384
     16 C          62.9567   88.5153   11.4496 C.ar    1  UNL1        0.0047
     17 C          61.8404   87.6411   10.9601 C.ar    1  UNL1        0.0207
     18 C          60.4314   87.9065   11.4010 C.ar    1  UNL1        0.0989
     19 N          60.1388   89.0461   12.3313 N.ar    1  UNL1       -0.2423
     20 C          61.2551   89.9203   12.8208 C.ar    1  UNL1        0.1004
     21 O          67.0477   92.2350   10.1291 O.2     1  UNL1       -0.2747
     22 C          66.6097   93.6096   10.5397 C.2     1  UNL1        0.2267
     23 N          65.7468   93.7906   11.7532 N.am    1  UNL1       -0.2681
     24 H          65.4594   94.6928   12.0227 H       1  UNL1        0.1563
     25 C          67.0348   94.8033    9.7369 C.3     1  UNL1        0.0769
     26 C          67.1958   96.2886    9.6034 C.3     1  UNL1        0.0096
     27 C          67.6100   95.3854    8.4798 C.3     1  UNL1        0.0096
@<TRIPOS>BOND
     1    21    22    2
     2    22    23   am
     3    23     1    1
     4     1     2   ar
     5     2     3   ar
     6     3     4   ar
     7     4     7    1
     8     7     8   ar
     9     8     9    1
    10     8    10   ar
    11    10    11   ar
    12    11    12   ar
    13    12    13   ar
    14    13    14    1
    15     4     5   ar
    16     5    15    1
    17    15    16   ar
    18    16    17   ar
    19    17    18   ar
    20    18    19   ar
    21    19    20   ar
    22     5     6   ar
    23    22    25    1
    24    25    26    1
    25    26    27    1
    26     6     1   ar
    27    27    25    1
    28    13     7   ar
    29    20    15   ar
    30    23    24    1
@<TRIPOS>MOLECULE
*****
 27 30 0 0 0
SMALL
GASTEIGER

@<TRIPOS>ATOM
      1 C          62.9707   90.8732   10.9911 C.ar    1  UNL1        0.1535
      2 C          63.2494   90.2486   12.3260 C.ar    1  UNL1        0.1332
      3 N          64.4321   90.6978   13.1319 N.ar    1  UNL1       -0.2392
      4 C          65.3360   91.7716   12.6029 C.ar    1  UNL1        0.1035
      5 C          65.0573   92.3962   11.2679 C.ar    1  UNL1        0.1019
      6 N          63.8746   91.9470   10.4620 N.ar    1  UNL1       -0.2274
      7 C          66.5187   92.2207   13.4089 C.ar    1  UNL1        0.0771
      8 C          67.9074   91.8756   12.9592 C.ar    1  UNL1        0.1628
      9 F          68.1136   91.0814   11.7035 F       1  UNL1       -0.2024
     10 C          69.0901   92.3248   13.7652 C.ar    1  UNL1        0.1286
     11 N          68.8840   93.1191   15.0208 N.ar    1  UNL1       -0.2376
     12 C          67.4952   93.4642   15.4705 C.ar    1  UNL1        0.1286
     13 C          66.3126   93.0150   14.6645 C.ar    1  UNL1        0.1628
     14 F          65.6689   93.2853   15.0494 F       1  UNL1       -0.2024
     15 C          65.9612   93.4700   10.7389 C.ar    1  UNL1        0.0384
     16 C          66.9987   93.1365    9.7082 C.ar    1  UNL1        0.0047
     17 C          67.9027   94.2103    9.1792 C.ar    1  UNL1        0.0207
     18 C          67.7691   95.6175    9.6808 C.ar    1  UNL1        0.0989
     19 N          66.7316   95.9510   10.7114 N.ar    1  UNL1       -0.2423
     20 C          65.8276   94.8772   11.2405 C.ar    1  UNL1        0.1004
     21 O          62.7180   87.9982   10.1722 O.2     1  UNL1       -0.2747
     22 C          61.6617   88.9866    9.7757 C.2     1  UNL1        0.2267
     23 N          61.7880   90.4240   10.1851 N.am    1  UNL1       -0.2681
     24 H          61.0947   91.0727    9.9248 H       1  UNL1        0.1563
     25 C          60.4790   88.5374    8.9697 C.3     1  UNL1        0.0769
     26 C          59.5413   88.7380    7.8163 C.3     1  UNL1        0.0096
     27 C          59.3682   87.5589    8.7271 C.3     1  UNL1        0.0096
@<TRIPOS>BOND
     1    21    22    2
     2    22    23   am
     3    23     1    1
     4     1     2   ar
     5     2     3   ar
     6     3     4   ar
     7     4     7    1
     8     7     8   ar
     9     8     9    1
    10     8    10   ar
    11    10    11   ar
    12    11    12   ar
    13    12    13   ar
    14    13    14    1
    15     4     5   ar
    16     5    15    1
    17    15    16   ar
    18    16    17   ar
    19    17    18   ar
    20    18    19   ar
    21    19    20   ar
    22     5     6   ar
    23    22    25    1
    24    25    26    1
    25    26    27    1
    26     6     1   ar
    27    27    25    1
    28    13     7   ar
    29    20    15   ar
    30    23    24    1
@<TRIPOS>MOLECULE
*****
 27 30 0 0 0
SMALL
GASTEIGER

@<TRIPOS>ATOM
      1 C          62.7207   90.5183   11.3568 C.ar    1  UNL1        0.1535
      2 C          62.9099   89.9973   12.7506 C.ar    1  UNL1        0.1332
      3 N          64.0748   90.4622   13.5734 N.ar    1  UNL1       -0.2392
      4 C          65.0504   91.4481   13.0023 C.ar    1  UNL1        0.1035
      5 C          64.8612   91.9691   11.6085 C.ar    1  UNL1        0.1019
      6 N          63.6964   91.5042   10.7857 N.ar    1  UNL1       -0.2274
      7 C          66.2153   91.9130   13.8251 C.ar    1  UNL1        0.0771
      8 C          65.9858   92.4959   15.1880 C.ar    1  UNL1        0.1628
      9 F          64.5915   92.6139   15.7282 F       1  UNL1       -0.2024
     10 C          67.1507   92.9608   16.0108 C.ar    1  UNL1        0.1286
     11 N          68.5451   92.8428   15.4706 N.ar    1  UNL1       -0.2376
     12 C          68.7746   92.2599   14.1077 C.ar    1  UNL1        0.1286
     13 C          67.6097   91.7950   13.2849 C.ar    1  UNL1        0.1628
     14 F          67.9181   91.5202   12.6031 F       1  UNL1       -0.2024
     15 C          65.8369   92.9550   11.0374 C.ar    1  UNL1        0.0384
     16 C          66.8262   92.5156    9.9991 C.ar    1  UNL1        0.0047
     17 C          67.8018   93.5015    9.4280 C.ar    1  UNL1        0.0207
     18 C          67.7882   94.9267    9.8952 C.ar    1  UNL1        0.0989
     19 N          66.7989   95.3661   10.9336 N.ar    1  UNL1       -0.2423
     20 C          65.8233   94.3802   11.5047 C.ar    1  UNL1        0.1004
     21 O          62.8393   87.8713    9.9498 O.2     1  UNL1       -0.2747
     22 C          61.6152   88.7299    9.8305 C.2     1  UNL1        0.2267
     23 N          61.5558   90.0534   10.5340 N.am    1  UNL1       -0.2681
     24 H          60.7524   90.6169   10.4557 H       1  UNL1        0.1563
     25 C          60.4502   88.2650    9.0077 C.3     1  UNL1        0.0769
     26 C          59.4134   87.2277    8.6936 C.3     1  UNL1        0.0096
     27 C          59.4695   88.4972    7.8967 C.3     1  UNL1        0.0096
@<TRIPOS>BOND
     1    21    22    2
     2    22    23   am
     3    23     1    1
     4     1     2   ar
     5     2     3   ar
     6     3     4   ar
     7     4     7    1
     8     7     8   ar
     9     8     9    1
    10     8    10   ar
    11    10    11   ar
    12    11    12   ar
    13    12    13   ar
    14    13    14    1
    15     4     5   ar
    16     5    15    1
    17    15    16   ar
    18    16    17   ar
    19    17    18   ar
    20    18    19   ar
    21    19    20   ar
    22     5     6   ar
    23    22    25    1
    24    25    26    1
    25    26    27    1
    26     6     1   ar
    27    27    25    1
    28    13     7   ar
    29    20    15   ar
    30    23    24    1
@<TRIPOS>MOLECULE
*****
 27 30 0 0 0
SMALL
GASTEIGER

@<TRIPOS>ATOM
      1 C          64.3517   89.6751   14.1123 C.ar    1  UNL1        0.1535
      2 C          63.7212   90.1138   12.8239 C.ar    1  UNL1        0.1332
      3 N          64.3113   91.2559   12.0509 N.ar    1  UNL1       -0.2392
      4 C          65.5319   91.9591   12.5664 C.ar    1  UNL1        0.1035
      5 C          66.1623   91.5203   13.8547 C.ar    1  UNL1        0.1019
      6 N          65.5722   90.3783   14.6277 N.ar    1  UNL1       -0.2274
      7 C          66.1220   93.1012   11.7933 C.ar    1  UNL1        0.0771
      8 C          66.7667   92.8521   10.4621 C.ar    1  UNL1        0.1628
      9 F          66.8215   91.4609    9.9039 F       1  UNL1       -0.2024
     10 C          67.3569   93.9942    9.6891 C.ar    1  UNL1        0.1286
     11 N          67.3021   95.3853   10.2473 N.ar    1  UNL1       -0.2376
     12 C          66.6573   95.6344   11.5786 C.ar    1  UNL1        0.1286
     13 C          66.0673   94.4924   12.3516 C.ar    1  UNL1        0.1628
     14 F          65.7745   94.8089   13.0221 F       1  UNL1       -0.2024
     15 C          67.3829   92.2236   14.3701 C.ar    1  UNL1        0.0384
     16 C          67.2646   93.1961   15.5060 C.ar    1  UNL1        0.0047
     17 C          68.4852   93.8993   16.0214 C.ar    1  UNL1        0.0207
     18 C          69.8240   93.6301   15.4010 C.ar    1  UNL1        0.0989
     19 N          69.9423   92.6576   14.2651 N.ar    1  UNL1       -0.2423
     20 C          68.7217   91.9544   13.7497 C.ar    1  UNL1        0.1004
     21 O          63.4294   90.0928   16.9363 O.2     1  UNL1       -0.2747
     22 C          63.3004   88.7419   16.2972 C.2     1  UNL1        0.2267
     23 N          63.7615   88.5330   14.8853 N.am    1  UNL1       -0.2681
     24 H          63.6769   87.6463   14.4659 H       1  UNL1        0.1563
     25 C          62.7103   87.5998   17.0703 C.3     1  UNL1        0.0769
     26 C          61.7330   86.4663   17.1703 C.3     1  UNL1        0.0096
     27 C          62.6656   86.7552   18.3091 C.3     1  UNL1        0.0096
@<TRIPOS>BOND
     1    21    22    2
     2    22    23   am
     3    23     1    1
     4     1     2   ar
     5     2     3   ar
     6     3     4   ar
     7     4     7    1
     8     7     8   ar
     9     8     9    1
    10     8    10   ar
    11    10    11   ar
    12    11    12   ar
    13    12    13   ar
    14    13    14    1
    15     4     5   ar
    16     5    15    1
    17    15    16   ar
    18    16    17   ar
    19    17    18   ar
    20    18    19   ar
    21    19    20   ar
    22     5     6   ar
    23    22    25    1
    24    25    26    1
    25    26    27    1
    26     6     1   ar
    27    27    25    1
    28    13     7   ar
    29    20    15   ar
    30    23    24    1
@<TRIPOS>MOLECULE
*****
 27 30 0 0 0
SMALL
GASTEIGER

@<TRIPOS>ATOM
      1 C          62.7512   90.6902   12.2227 C.ar    1  UNL1        0.1535
      2 C          62.8223   90.9619   10.7493 C.ar    1  UNL1        0.1332
      3 N          63.9974   91.6990   10.1785 N.ar    1  UNL1       -0.2392
      4 C          65.1014   92.1643   11.0811 C.ar    1  UNL1        0.1035
      5 C          65.0303   91.8925   12.5545 C.ar    1  UNL1        0.1019
      6 N          63.8552   91.1555   13.1253 N.ar    1  UNL1       -0.2274
      7 C          66.2765   92.9013   10.5102 C.ar    1  UNL1        0.0771
      8 C          66.1793   94.3737   10.2404 C.ar    1  UNL1        0.1628
      9 F          64.9071   95.1090   10.5415 F       1  UNL1       -0.2024
     10 C          67.3545   95.1107    9.6695 C.ar    1  UNL1        0.1286
     11 N          68.6267   94.3754    9.3684 N.ar    1  UNL1       -0.2376
     12 C          68.7239   92.9030    9.6382 C.ar    1  UNL1        0.1286
     13 C          67.5488   92.1660   10.2091 C.ar    1  UNL1        0.1628
     14 F          67.7806   91.4070   10.2835 F       1  UNL1       -0.2024
     15 C          66.1343   92.3578   13.4571 C.ar    1  UNL1        0.0384
     16 C          67.0084   91.3556   14.1510 C.ar    1  UNL1        0.0047
     17 C          68.1124   91.8209   15.0536 C.ar    1  UNL1        0.0207
     18 C          68.3423   93.2883   15.2624 C.ar    1  UNL1        0.0989
     19 N          67.4682   94.2905   14.5685 N.ar    1  UNL1       -0.2423
     20 C          66.3642   93.8253   13.6658 C.ar    1  UNL1        0.1004
     21 O          60.0639   90.9018   10.9059 O.2     1  UNL1       -0.2747
     22 C          60.2325   90.0589   12.1352 C.2     1  UNL1        0.2267
     23 N          61.5761   89.9531   12.7936 N.am    1  UNL1       -0.2681
     24 H          61.6867   89.3999   13.6004 H       1  UNL1        0.1563
     25 C          59.0573   89.3218   12.7061 C.3     1  UNL1        0.0769
     26 C          58.4187   88.5731   13.8382 C.3     1  UNL1        0.0096
     27 C          57.6606   88.7939   12.5629 C.3     1  UNL1        0.0096
@<TRIPOS>BOND
     1    21    22    2
     2    22    23   am
     3    23     1    1
     4     1     2   ar
     5     2     3   ar
     6     3     4   ar
     7     4     7    1
     8     7     8   ar
     9     8     9    1
    10     8    10   ar
    11    10    11   ar
    12    11    12   ar
    13    12    13   ar
    14    13    14    1
    15     4     5   ar
    16     5    15    1
    17    15    16   ar
    18    16    17   ar
    19    17    18   ar
    20    18    19   ar
    21    19    20   ar
    22     5     6   ar
    23    22    25    1
    24    25    26    1
    25    26    27    1
    26     6     1   ar
    27    27    25    1
    28    13     7   ar
    29    20    15   ar
    30    23    24    1
@<TRIPOS>MOLECULE
*****
 27 30 0 0 0
SMALL
GASTEIGER

@<TRIPOS>ATOM
      1 C          63.8985   90.0894   14.5992 C.ar    1  UNL1        0.1535
      2 C          63.2419   90.4964   13.3135 C.ar    1  UNL1        0.1332
      3 N          63.9297   91.4598   12.3923 N.ar    1  UNL1       -0.2392
      4 C          65.2742   92.0163   12.7568 C.ar    1  UNL1        0.1035
      5 C          65.9308   91.6093   14.0425 C.ar    1  UNL1        0.1019
      6 N          65.2429   90.6458   14.9637 N.ar    1  UNL1       -0.2274
      7 C          65.9620   92.9797   11.8355 C.ar    1  UNL1        0.0771
      8 C          66.2087   94.3923   12.2758 C.ar    1  UNL1        0.1628
      9 F          65.7675   94.8414   13.6373 F       1  UNL1       -0.2024
     10 C          66.8965   95.3558   11.3545 C.ar    1  UNL1        0.1286
     11 N          67.3376   94.9066    9.9930 N.ar    1  UNL1       -0.2376
     12 C          67.0909   93.4940    9.5528 C.ar    1  UNL1        0.1286
     13 C          66.4031   92.5306   10.4740 C.ar    1  UNL1        0.1628
     14 F          66.3597   91.8404   10.0775 F       1  UNL1       -0.2024
     15 C          67.2752   92.1657   14.4071 C.ar    1  UNL1        0.0384
     16 C          67.4106   93.0931   15.5782 C.ar    1  UNL1        0.0047
     17 C          68.7551   93.6495   15.9427 C.ar    1  UNL1        0.0207
     18 C          69.9641   93.2785   15.1362 C.ar    1  UNL1        0.0989
     19 N          69.8287   92.3511   13.9651 N.ar    1  UNL1       -0.2423
     20 C          68.4842   91.7947   13.6005 C.ar    1  UNL1        0.1004
     21 O          64.9321   87.2874   14.8830 O.2     1  UNL1       -0.2747
     22 C          63.7275   87.7250   15.6623 C.2     1  UNL1        0.2267
     23 N          63.2107   89.1259   15.5205 N.am    1  UNL1       -0.2681
     24 H          62.4200   89.4131   16.0320 H       1  UNL1        0.1563
     25 C          63.0396   86.7615   16.5836 C.3     1  UNL1        0.0769
     26 C          62.2974   85.4762   16.8004 C.3     1  UNL1        0.0096
     27 C          62.5906   86.3780   17.9625 C.3     1  UNL1        0.0096
@<TRIPOS>BOND
     1    21    22    2
     2    22    23   am
     3    23     1    1
     4     1     2   ar
     5     2     3   ar
     6     3     4   ar
     7     4     7    1
     8     7     8   ar
     9     8     9    1
    10     8    10   ar
    11    10    11   ar
    12    11    12   ar
    13    12    13   ar
    14    13    14    1
    15     4     5   ar
    16     5    15    1
    17    15    16   ar
    18    16    17   ar
    19    17    18   ar
    20    18    19   ar
    21    19    20   ar
    22     5     6   ar
    23    22    25    1
    24    25    26    1
    25    26    27    1
    26     6     1   ar
    27    27    25    1
    28    13     7   ar
    29    20    15   ar
    30    23    24    1
@<TRIPOS>MOLECULE
*****
 27 30 0 0 0
SMALL
GASTEIGER

@<TRIPOS>ATOM
      1 C          63.8069   85.2187   13.3338 C.ar    1  UNL1        0.1535
      2 C          64.5784   85.4865   14.5920 C.ar    1  UNL1        0.1332
      3 N          64.7242   86.8910   15.0977 N.ar    1  UNL1       -0.2392
      4 C          64.0984   88.0278   14.3453 C.ar    1  UNL1        0.1035
      5 C          63.3269   87.7600   13.0872 C.ar    1  UNL1        0.1019
      6 N          63.1811   86.3555   12.5814 N.ar    1  UNL1       -0.2274
      7 C          64.2441   89.4325   14.8511 C.ar    1  UNL1        0.0771
      8 C          63.4541   89.8863   16.0426 C.ar    1  UNL1        0.1628
      9 F          62.5182   88.9356   16.7284 F       1  UNL1       -0.2024
     10 C          63.5998   91.2910   16.5485 C.ar    1  UNL1        0.1286
     11 N          64.5357   92.2417   15.8627 N.ar    1  UNL1       -0.2376
     12 C          65.3258   91.7878   14.6712 C.ar    1  UNL1        0.1286
     13 C          65.1800   90.3832   14.1654 C.ar    1  UNL1        0.1628
     14 F          65.6678   90.3241   13.5376 F       1  UNL1       -0.2024
     15 C          62.7011   88.8968   12.3348 C.ar    1  UNL1        0.0384
     16 C          63.5075   89.6658   11.3306 C.ar    1  UNL1        0.0047
     17 C          62.8817   90.8026   10.5782 C.ar    1  UNL1        0.0207
     18 C          61.4495   91.1704   10.8300 C.ar    1  UNL1        0.0989
     19 N          60.6431   90.4015   11.8341 N.ar    1  UNL1       -0.2423
     20 C          61.2689   89.2647   12.5865 C.ar    1  UNL1        0.1004
     21 O          62.1188   83.2492   14.8410 O.2     1  UNL1       -0.2747
     22 C          62.8171   82.8293   13.5815 C.2     1  UNL1        0.2267
     23 N          63.6611   83.8140   12.8280 N.am    1  UNL1       -0.2681
     24 H          64.1194   83.5384   12.0014 H       1  UNL1        0.1563
     25 C          62.6713   81.4246   13.0757 C.3     1  UNL1        0.0769
     26 C          62.8463   80.4131   11.9821 C.3     1  UNL1        0.0096
     27 C          62.2438   80.0034   13.2932 C.3     1  UNL1        0.0096
@<TRIPOS>BOND
     1    21    22    2
     2    22    23   am
     3    23     1    1
     4     1     2   ar
     5     2     3   ar
     6     3     4   ar
     7     4     7    1
     8     7     8   ar
     9     8     9    1
    10     8    10   ar
    11    10    11   ar
    12    11    12   ar
    13    12    13   ar
    14    13    14    1
    15     4     5   ar
    16     5    15    1
    17    15    16   ar
    18    16    17   ar
    19    17    18   ar
    20    18    19   ar
    21    19    20   ar
    22     5     6   ar
    23    22    25    1
    24    25    26    1
    25    26    27    1
    26     6     1   ar
    27    27    25    1
    28    13     7   ar
    29    20    15   ar
    30    23    24    1
@<TRIPOS>MOLECULE
*****
 27 30 0 0 0
SMALL
GASTEIGER

@<TRIPOS>ATOM
      1 C          63.9303   89.3129   13.2575 C.ar    1  UNL1        0.1535
      2 C          63.2732   90.1401   12.1927 C.ar    1  UNL1        0.1332
      3 N          62.4867   89.4732   11.1034 N.ar    1  UNL1       -0.2392
      4 C          62.3573   87.9790   11.0789 C.ar    1  UNL1        0.1035
      5 C          63.0144   87.1517   12.1437 C.ar    1  UNL1        0.1019
      6 N          63.8009   87.8187   13.2330 N.ar    1  UNL1       -0.2274
      7 C          61.5708   87.3121    9.9896 C.ar    1  UNL1        0.0771
      8 C          60.0718   87.3634   10.0077 C.ar    1  UNL1        0.1628
      9 F          59.3593   88.0816   11.1152 F       1  UNL1       -0.2024
     10 C          59.2852   86.6965    8.9184 C.ar    1  UNL1        0.1286
     11 N          59.9977   85.9782    7.8109 N.ar    1  UNL1       -0.2376
     12 C          61.4968   85.9269    7.7928 C.ar    1  UNL1        0.1286
     13 C          62.2833   86.5938    8.8821 C.ar    1  UNL1        0.1628
     14 F          63.0507   86.4645    8.7097 F       1  UNL1       -0.2024
     15 C          62.8850   85.6575   12.1192 C.ar    1  UNL1        0.0384
     16 C          63.2536   84.8930   10.8825 C.ar    1  UNL1        0.0047
     17 C          63.1242   83.3988   10.8580 C.ar    1  UNL1        0.0207
     18 C          62.6262   82.6691   12.0702 C.ar    1  UNL1        0.0989
     19 N          62.2577   83.4336   13.3069 N.ar    1  UNL1       -0.2423
     20 C          62.3871   84.9278   13.3314 C.ar    1  UNL1        0.1004
     21 O          65.6752   91.6688   12.6209 O.2     1  UNL1       -0.2747
     22 C          65.5893   91.1577   14.0285 C.2     1  UNL1        0.2267
     23 N          64.7169   89.9798   14.3469 N.am    1  UNL1       -0.2681
     24 H          64.6605   89.6444   15.2707 H       1  UNL1        0.1563
     25 C          66.3758   91.8246   15.1179 C.3     1  UNL1        0.0769
     26 C          66.4220   92.6744   16.3531 C.3     1  UNL1        0.0096
     27 C          67.6920   92.1299   15.7695 C.3     1  UNL1        0.0096
@<TRIPOS>BOND
     1    21    22    2
     2    22    23   am
     3    23     1    1
     4     1     2   ar
     5     2     3   ar
     6     3     4   ar
     7     4     7    1
     8     7     8   ar
     9     8     9    1
    10     8    10   ar
    11    10    11   ar
    12    11    12   ar
    13    12    13   ar
    14    13    14    1
    15     4     5   ar
    16     5    15    1
    17    15    16   ar
    18    16    17   ar
    19    17    18   ar
    20    18    19   ar
    21    19    20   ar
    22     5     6   ar
    23    22    25    1
    24    25    26    1
    25    26    27    1
    26     6     1   ar
    27    27    25    1
    28    13     7   ar
    29    20    15   ar
    30    23    24    1
@<TRIPOS>MOLECULE
*****
 27 30 0 0 0
SMALL
GASTEIGER

@<TRIPOS>ATOM
      1 C          64.2770   87.2356   14.4516 C.ar    1  UNL1        0.1535
      2 C          64.7909   85.9348   14.9935 C.ar    1  UNL1        0.1332
      3 N          64.5372   84.6588   14.2469 N.ar    1  UNL1       -0.2392
      4 C          63.7695   84.6836   12.9585 C.ar    1  UNL1        0.1035
      5 C          63.2556   85.9844   12.4166 C.ar    1  UNL1        0.1019
      6 N          63.5093   87.2604   13.1631 N.ar    1  UNL1       -0.2274
      7 C          63.5158   83.4075   12.2119 C.ar    1  UNL1        0.0771
      8 C          62.4778   82.4436   12.7053 C.ar    1  UNL1        0.1628
      9 F          61.6935   82.7558   13.9452 F       1  UNL1       -0.2024
     10 C          62.2241   81.1675   11.9588 C.ar    1  UNL1        0.1286
     11 N          63.0084   80.8554   10.7188 N.ar    1  UNL1       -0.2376
     12 C          64.0465   81.8193   10.2255 C.ar    1  UNL1        0.1286
     13 C          64.3001   83.0954   10.9720 C.ar    1  UNL1        0.1628
     14 F          64.8748   83.4745   10.5701 F       1  UNL1       -0.2024
     15 C          62.4879   86.0092   11.1281 C.ar    1  UNL1        0.0384
     16 C          63.1514   85.5849    9.8515 C.ar    1  UNL1        0.0047
     17 C          62.3837   85.6097    8.5631 C.ar    1  UNL1        0.0207
     18 C          60.9526   86.0588    8.5512 C.ar    1  UNL1        0.0989
     19 N          60.2892   86.4832    9.8278 N.ar    1  UNL1       -0.2423
     20 C          61.0569   86.4584   11.1163 C.ar    1  UNL1        0.1004
     21 O          64.2200   89.8600   12.9991 O.2     1  UNL1       -0.2747
     22 C          64.5022   89.8239   14.4719 C.2     1  UNL1        0.2267
     23 N          64.5307   88.5117   15.1981 N.am    1  UNL1       -0.2681
     24 H          64.7159   88.4881   16.1648 H       1  UNL1        0.1563
     25 C          64.7559   91.1000   15.2184 C.3     1  UNL1        0.0769
     26 C          65.5407   92.3655   15.3986 C.3     1  UNL1        0.0096
     27 C          64.4105   92.0447   16.3312 C.3     1  UNL1        0.0096
@<TRIPOS>BOND
     1    21    22    2
     2    22    23   am
     3    23     1    1
     4     1     2   ar
     5     2     3   ar
     6     3     4   ar
     7     4     7    1
     8     7     8   ar
     9     8     9    1
    10     8    10   ar
    11    10    11   ar
    12    11    12   ar
    13    12    13   ar
    14    13    14    1
    15     4     5   ar
    16     5    15    1
    17    15    16   ar
    18    16    17   ar
    19    17    18   ar
    20    18    19   ar
    21    19    20   ar
    22     5     6   ar
    23    22    25    1
    24    25    26    1
    25    26    27    1
    26     6     1   ar
    27    27    25    1
    28    13     7   ar
    29    20    15   ar
    30    23    24    1
