@<TRIPOS>MOLECULE
*****
 29 33 0 0 0
SMALL
GASTEIGER

@<TRIPOS>ATOM
      1 C          62.0286   85.5755   11.2654 C.3     1  UNL1        0.0325
      2 C          62.8795   86.0539   12.4043 C.ar    1  UNL1       -0.0058
      3 C          63.4546   85.0673   13.3769 C.ar    1  UNL1       -0.0003
      4 C          64.3054   85.5457   14.5158 C.ar    1  UNL1       -0.0000
      5 C          64.5813   87.0107   14.6822 C.ar    1  UNL1        0.0045
      6 C          64.0062   87.9974   13.7096 C.ar    1  UNL1        0.0518
      7 C          64.2820   89.4624   13.8760 C.ar    1  UNL1        0.1709
      8 O          65.0784   90.2246   14.8932 O.2     1  UNL1       -0.4310
      9 C          64.9955   91.6823   14.5493 C.ar    1  UNL1        0.2852
     10 N          64.1479   91.8210   13.3195 N.ar    1  UNL1       -0.1994
     11 C          63.7069   90.4490   12.9034 C.ar    1  UNL1        0.1748
     12 C          62.8561   89.9706   11.7644 C.ar    1  UNL1        0.2816
     13 O          62.2810   90.9572   10.7919 O.2     1  UNL1       -0.2652
     14 N          62.5803   88.5056   11.5981 N.ar    1  UNL1       -0.2963
     15 C          63.1553   87.5190   12.5707 C.ar    1  UNL1        0.0614
     16 C          63.1788   83.6023   13.2106 C.ar    1  UNL1        0.0295
     17 C          62.1125   82.9418   14.0332 C.ar    1  UNL1        0.0331
     18 C          61.8368   81.4767   13.8668 C.ar    1  UNL1        0.1530
     19 F          60.7705   80.8161   14.6895 F       1  UNL1       -0.2029
     20 C          62.6273   80.6722   12.8779 C.ar    1  UNL1        0.0716
     21 N          62.3515   79.2072   12.7116 N.pl3   1  UNL1       -0.3552
     22 C          63.6935   81.3329   12.0552 C.ar    1  UNL1        0.0460
     23 C          63.9692   82.7979   12.2216 C.ar    1  UNL1        0.1414
     24 F          65.0355   83.4585   11.3990 F       1  UNL1       -0.2041
     25 H          61.6516   78.7737   13.2515 H       1  UNL1        0.1424
     26 H          62.8703   78.6793   12.0625 H       1  UNL1        0.1424
     27 C          61.7294   88.0272   10.4592 C.3     1  UNL1        0.0885
     28 C          60.3761   87.8218    9.8455 C.3     1  UNL1        0.0246
     29 C          61.6089   87.4041    9.1000 C.3     1  UNL1        0.0246
@<TRIPOS>BOND
     1     1     2    1
     2     2     3   ar
     3     3    16    1
     4    16    17   ar
     5    17    18   ar
     6    18    19    1
     7    18    20   ar
     8    20    21    1
     9    20    22   ar
    10    22    23   ar
    11    23    24    1
    12     3     4   ar
    13     4     5   ar
    14     5     6   ar
    15     6     7   ar
    16     7     8   ar
    17     8     9   ar
    18     9    10   ar
    19    10    11   ar
    20    11    12   ar
    21    12    13    2
    22    12    14   ar
    23    14    27    1
    24    27    28    1
    25    28    29    1
    26    14    15   ar
    27    15     2   ar
    28    23    16   ar
    29    15     6   ar
    30    11     7   ar
    31    29    27    1
    32    21    25    1
    33    21    26    1
@<TRIPOS>MOLECULE
*****
 29 33 0 0 0
SMALL
GASTEIGER

@<TRIPOS>ATOM
      1 C          64.2428   87.8473   13.9466 C.3     1  UNL1        0.0325
      2 C          63.5491   88.5464   12.8153 C.ar    1  UNL1       -0.0058
      3 C          63.6167   90.0406   12.7027 C.ar    1  UNL1       -0.0003
      4 C          62.9231   90.7397   11.5713 C.ar    1  UNL1       -0.0000
      5 C          62.1617   89.9447   10.5524 C.ar    1  UNL1        0.0045
      6 C          62.0941   88.4504   10.6649 C.ar    1  UNL1        0.0518
      7 C          61.3328   87.6552    9.6460 C.ar    1  UNL1        0.1709
      8 O          60.5548   88.0643    8.4305 O.2     1  UNL1       -0.4310
      9 C          60.0063   86.8228    7.7918 C.ar    1  UNL1        0.2852
     10 N          60.4453   85.6465    8.6125 N.ar    1  UNL1       -0.1994
     11 C          61.2651   86.1610    9.7585 C.ar    1  UNL1        0.1748
     12 C          61.9588   85.4619   10.8899 C.ar    1  UNL1        0.2816
     13 O          61.8912   83.9676   11.0024 O.2     1  UNL1       -0.2652
     14 N          62.7201   86.2570   11.9088 N.ar    1  UNL1       -0.2963
     15 C          62.7877   87.7512   11.7963 C.ar    1  UNL1        0.0614
     16 C          64.3780   90.8358   13.7216 C.ar    1  UNL1        0.0295
     17 C          65.6006   91.6030   13.3135 C.ar    1  UNL1        0.0331
     18 C          66.3619   92.3982   14.3325 C.ar    1  UNL1        0.1530
     19 F          67.5845   93.1655   13.9244 F       1  UNL1       -0.2029
     20 C          65.9006   92.4261   15.7595 C.ar    1  UNL1        0.0716
     21 N          66.6619   93.2212   16.7784 N.pl3   1  UNL1       -0.3552
     22 C          64.6779   91.6588   16.1676 C.ar    1  UNL1        0.0460
     23 C          63.9167   90.8637   15.1486 C.ar    1  UNL1        0.1414
     24 F          62.6941   90.0964   15.5568 F       1  UNL1       -0.2041
     25 H          67.4643   93.7248   16.5105 H       1  UNL1        0.1424
     26 H          66.3591   93.2396   17.7150 H       1  UNL1        0.1424
     27 C          63.4138   85.5578   13.0402 C.3     1  UNL1        0.0885
     28 C          64.5466   84.7156   13.5475 C.3     1  UNL1        0.0246
     29 C          63.4823   85.1892   14.4926 C.3     1  UNL1        0.0246
@<TRIPOS>BOND
     1     1     2    1
     2     2     3   ar
     3     3    16    1
     4    16    17   ar
     5    17    18   ar
     6    18    19    1
     7    18    20   ar
     8    20    21    1
     9    20    22   ar
    10    22    23   ar
    11    23    24    1
    12     3     4   ar
    13     4     5   ar
    14     5     6   ar
    15     6     7   ar
    16     7     8   ar
    17     8     9   ar
    18     9    10   ar
    19    10    11   ar
    20    11    12   ar
    21    12    13    2
    22    12    14   ar
    23    14    27    1
    24    27    28    1
    25    28    29    1
    26    14    15   ar
    27    15     2   ar
    28    23    16   ar
    29    15     6   ar
    30    11     7   ar
    31    29    27    1
    32    21    25    1
    33    21    26    1
@<TRIPOS>MOLECULE
*****
 29 33 0 0 0
SMALL
GASTEIGER

@<TRIPOS>ATOM
      1 C          64.5331   88.2654   14.1514 C.3     1  UNL1        0.0325
      2 C          63.8508   88.9152   12.9842 C.ar    1  UNL1       -0.0058
      3 C          63.9985   90.3902   12.7552 C.ar    1  UNL1       -0.0003
      4 C          63.3163   91.0400   11.5880 C.ar    1  UNL1       -0.0000
      5 C          62.4864   90.2148   10.6498 C.ar    1  UNL1        0.0045
      6 C          62.3387   88.7397   10.8787 C.ar    1  UNL1        0.0518
      7 C          61.5089   87.9144    9.9405 C.ar    1  UNL1        0.1709
      8 O          60.7242   88.2739    8.7137 O.2     1  UNL1       -0.4310
      9 C          60.0917   87.0210    8.1844 C.ar    1  UNL1        0.2852
     10 N          60.4853   85.8872    9.0842 N.ar    1  UNL1       -0.1994
     11 C          61.3612   86.4394   10.1695 C.ar    1  UNL1        0.1748
     12 C          62.0435   85.7896   11.3367 C.ar    1  UNL1        0.2816
     13 O          61.8958   84.3146   11.5657 O.2     1  UNL1       -0.2652
     14 N          62.8733   86.6149   12.2749 N.ar    1  UNL1       -0.2963
     15 C          63.0209   88.0899   12.0459 C.ar    1  UNL1        0.0614
     16 C          64.8283   91.2155   13.6934 C.ar    1  UNL1        0.0295
     17 C          64.4369   91.3315   15.1368 C.ar    1  UNL1        0.0331
     18 C          65.2668   92.1568   16.0749 C.ar    1  UNL1        0.1530
     19 F          64.8754   92.2728   17.5183 F       1  UNL1       -0.2029
     20 C          66.4881   92.8662   15.5697 C.ar    1  UNL1        0.0716
     21 N          67.3180   93.6915   16.5079 N.pl3   1  UNL1       -0.3552
     22 C          66.8795   92.7502   14.1263 C.ar    1  UNL1        0.0460
     23 C          66.0496   91.9249   13.1882 C.ar    1  UNL1        0.1414
     24 F          66.4411   91.8090   11.7448 F       1  UNL1       -0.2041
     25 H          67.0610   93.7676   17.4553 H       1  UNL1        0.1424
     26 H          68.1196   94.1570   16.1764 H       1  UNL1        0.1424
     27 C          63.5555   85.9650   13.4421 C.3     1  UNL1        0.0885
     28 C          64.6820   85.1439   13.9961 C.3     1  UNL1        0.0246
     29 C          63.6106   85.6607   14.9099 C.3     1  UNL1        0.0246
@<TRIPOS>BOND
     1     1     2    1
     2     2     3   ar
     3     3    16    1
     4    16    17   ar
     5    17    18   ar
     6    18    19    1
     7    18    20   ar
     8    20    21    1
     9    20    22   ar
    10    22    23   ar
    11    23    24    1
    12     3     4   ar
    13     4     5   ar
    14     5     6   ar
    15     6     7   ar
    16     7     8   ar
    17     8     9   ar
    18     9    10   ar
    19    10    11   ar
    20    11    12   ar
    21    12    13    2
    22    12    14   ar
    23    14    27    1
    24    27    28    1
    25    28    29    1
    26    14    15   ar
    27    15     2   ar
    28    23    16   ar
    29    15     6   ar
    30    11     7   ar
    31    29    27    1
    32    21    25    1
    33    21    26    1
@<TRIPOS>MOLECULE
*****
 29 33 0 0 0
SMALL
GASTEIGER

@<TRIPOS>ATOM
      1 C          62.9180   88.3788   12.5415 C.3     1  UNL1        0.0325
      2 C          63.2740   89.6363   11.8053 C.ar    1  UNL1       -0.0058
      3 C          62.7648   89.8594   10.4121 C.ar    1  UNL1       -0.0003
      4 C          63.1207   91.1169    9.6759 C.ar    1  UNL1       -0.0000
      5 C          63.9859   92.1513   10.3328 C.ar    1  UNL1        0.0045
      6 C          64.4952   91.9282   11.7260 C.ar    1  UNL1        0.0518
      7 C          65.3604   92.9625   12.3829 C.ar    1  UNL1        0.1709
      8 O          65.8735   94.2899   11.9088 O.2     1  UNL1       -0.4310
      9 C          66.6999   94.8871   13.0090 C.ar    1  UNL1        0.2852
     10 N          66.6975   93.9288   14.1630 N.ar    1  UNL1       -0.1994
     11 C          65.8696   92.7393   13.7761 C.ar    1  UNL1        0.1748
     12 C          65.5137   91.4819   14.5123 C.ar    1  UNL1        0.2816
     13 O          66.0229   91.2587   15.9054 O.2     1  UNL1       -0.2652
     14 N          64.6485   90.4475   13.8553 N.ar    1  UNL1       -0.2963
     15 C          64.1393   90.6707   12.4623 C.ar    1  UNL1        0.0614
     16 C          61.8996   88.8251    9.7552 C.ar    1  UNL1        0.0295
     17 C          62.4844   87.5036    9.3531 C.ar    1  UNL1        0.0331
     18 C          61.6190   86.4693    8.6962 C.ar    1  UNL1        0.1530
     19 F          62.2038   85.1478    8.2941 F       1  UNL1       -0.2029
     20 C          60.1690   86.7565    8.4413 C.ar    1  UNL1        0.0716
     21 N          59.3038   85.7222    7.7843 N.pl3   1  UNL1       -0.3552
     22 C          59.5843   88.0781    8.8433 C.ar    1  UNL1        0.0460
     23 C          60.4495   89.1123    9.5003 C.ar    1  UNL1        0.1414
     24 F          59.8647   90.4338    9.9023 F       1  UNL1       -0.2041
     25 H          59.6876   84.8549    7.5204 H       1  UNL1        0.1424
     26 H          58.3521   85.9107    7.6170 H       1  UNL1        0.1424
     27 C          64.2925   89.1900   14.5916 C.3     1  UNL1        0.0885
     28 C          64.4061   87.7032   14.7537 C.3     1  UNL1        0.0246
     29 C          63.5624   88.4990   15.7049 C.3     1  UNL1        0.0246
@<TRIPOS>BOND
     1     1     2    1
     2     2     3   ar
     3     3    16    1
     4    16    17   ar
     5    17    18   ar
     6    18    19    1
     7    18    20   ar
     8    20    21    1
     9    20    22   ar
    10    22    23   ar
    11    23    24    1
    12     3     4   ar
    13     4     5   ar
    14     5     6   ar
    15     6     7   ar
    16     7     8   ar
    17     8     9   ar
    18     9    10   ar
    19    10    11   ar
    20    11    12   ar
    21    12    13    2
    22    12    14   ar
    23    14    27    1
    24    27    28    1
    25    28    29    1
    26    14    15   ar
    27    15     2   ar
    28    23    16   ar
    29    15     6   ar
    30    11     7   ar
    31    29    27    1
    32    21    25    1
    33    21    26    1
@<TRIPOS>MOLECULE
*****
 29 33 0 0 0
SMALL
GASTEIGER

@<TRIPOS>ATOM
      1 C          62.9163   89.2462   12.3590 C.3     1  UNL1        0.0325
      2 C          63.3935   87.9870   13.0199 C.ar    1  UNL1       -0.0058
      3 C          64.0928   88.0542   14.3452 C.ar    1  UNL1       -0.0003
      4 C          64.5700   86.7951   15.0061 C.ar    1  UNL1       -0.0000
      5 C          64.3480   85.4687   14.3418 C.ar    1  UNL1        0.0045
      6 C          63.6487   85.4014   13.0164 C.ar    1  UNL1        0.0518
      7 C          63.4267   84.0751   12.3519 C.ar    1  UNL1        0.1709
      8 O          63.7829   82.6762   12.7596 O.2     1  UNL1       -0.4310
      9 C          63.3038   81.7444   11.6862 C.ar    1  UNL1        0.2852
     10 N          62.6515   82.5675   10.6151 N.ar    1  UNL1       -0.1994
     11 C          62.7274   84.0079   11.0266 C.ar    1  UNL1        0.1748
     12 C          62.2502   85.2671   10.3657 C.ar    1  UNL1        0.2816
     13 O          61.5510   85.1999    9.0403 O.2     1  UNL1       -0.2652
     14 N          62.4723   86.5934   11.0301 N.ar    1  UNL1       -0.2963
     15 C          63.1715   86.6606   12.3554 C.ar    1  UNL1        0.0614
     16 C          64.3148   89.3805   15.0097 C.ar    1  UNL1        0.0295
     17 C          65.3690   90.3126   14.4900 C.ar    1  UNL1        0.0331
     18 C          65.5909   91.6390   15.1546 C.ar    1  UNL1        0.1530
     19 F          66.6451   92.5710   14.6350 F       1  UNL1       -0.2029
     20 C          64.7588   92.0333   16.3387 C.ar    1  UNL1        0.0716
     21 N          64.9809   93.3596   17.0032 N.pl3   1  UNL1       -0.3552
     22 C          63.7047   91.1011   16.8583 C.ar    1  UNL1        0.0460
     23 C          63.4827   89.7748   16.1938 C.ar    1  UNL1        0.1414
     24 F          62.4285   88.8428   16.7134 F       1  UNL1       -0.2041
     25 H          65.6728   93.9713   16.6621 H       1  UNL1        0.1424
     26 H          64.4347   93.6184   17.7803 H       1  UNL1        0.1424
     27 C          61.9950   87.8526   10.3692 C.3     1  UNL1        0.0885
     28 C          62.2926   89.1523    9.6821 C.3     1  UNL1        0.0246
     29 C          60.8706   88.7336    9.9114 C.3     1  UNL1        0.0246
@<TRIPOS>BOND
     1     1     2    1
     2     2     3   ar
     3     3    16    1
     4    16    17   ar
     5    17    18   ar
     6    18    19    1
     7    18    20   ar
     8    20    21    1
     9    20    22   ar
    10    22    23   ar
    11    23    24    1
    12     3     4   ar
    13     4     5   ar
    14     5     6   ar
    15     6     7   ar
    16     7     8   ar
    17     8     9   ar
    18     9    10   ar
    19    10    11   ar
    20    11    12   ar
    21    12    13    2
    22    12    14   ar
    23    14    27    1
    24    27    28    1
    25    28    29    1
    26    14    15   ar
    27    15     2   ar
    28    23    16   ar
    29    15     6   ar
    30    11     7   ar
    31    29    27    1
    32    21    25    1
    33    21    26    1
