@<TRIPOS>MOLECULE
*****
 18 20 0 0 0
SMALL
GASTEIGER

@<TRIPOS>ATOM
      1 C          64.7428   90.1003   14.3236 C.2     1  UNL1        0.0070
      2 C          64.5148   88.7261   14.8801 C.2     1  UNL1        0.0947
      3 N          63.7167   87.9466   13.8774 N.2     1  UNL1       -0.2481
      4 C          63.4514   88.8390   12.7013 C.2     1  UNL1        0.0632
      5 C          62.7142   88.6116   11.4149 C.3     1  UNL1        0.0741
      6 C          62.6113   89.7152   10.4043 C.2     1  UNL1        0.0098
      7 C          63.2455   91.0463   10.6801 C.2     1  UNL1        0.1363
      8 F          63.1425   92.1500    9.6694 F       1  UNL1       -0.2045
      9 C          63.9826   91.2737   11.9665 C.2     1  UNL1        0.0302
     10 C          64.0855   90.1701   12.9771 C.2     1  UNL1        0.0141
     11 O          68.5721   93.4826   15.6569 O.2     1  UNL1       -0.2747
     12 C          67.2559   92.7646   15.6086 C.2     1  UNL1        0.2289
     13 C          66.9113   91.6148   14.7089 C.3     1  UNL1        0.0990
     14 C          65.4958   91.2099   14.9958 C.3     1  UNL1        0.1097
     15 C          64.9655   92.1094   16.0726 C.2     1  UNL1        0.2323
     16 O          63.5891   92.0572   16.6664 O.2     1  UNL1       -0.2743
     17 N          66.0533   93.0703   16.4514 N.am    1  UNL1       -0.2550
     18 H          65.9892   93.7774   17.1334 H       1  UNL1        0.1575
@<TRIPOS>BOND
     1    11    12    2
     2    12    13    1
     3    13    14    1
     4    14     1    1
     5     1     2    2
     6     2     3    1
     7     3     4    2
     8     4     5    1
     9     5     6    1
    10     6     7    2
    11     7     8    1
    12     7     9    1
    13     9    10    2
    14    14    15    1
    15    15    16    2
    16    15    17   am
    17    17    12   am
    18    10     1    1
    19    10     4    1
    20    17    18    1
@<TRIPOS>MOLECULE
*****
 18 20 0 0 0
SMALL
GASTEIGER

@<TRIPOS>ATOM
      1 C          63.4383   83.6438   12.0136 C.2     1  UNL1        0.0070
      2 C          64.4841   82.7845   11.3671 C.2     1  UNL1        0.0947
      3 N          64.5193   83.1181    9.9051 N.2     1  UNL1       -0.2481
      4 C          63.4952   84.1835    9.6480 C.2     1  UNL1        0.0632
      5 C          63.0847   84.8998    8.3956 C.3     1  UNL1        0.0741
      6 C          62.0062   85.9410    8.4464 C.2     1  UNL1        0.0098
      7 C          61.3381   86.2659    9.7495 C.2     1  UNL1        0.1363
      8 F          60.2595   87.3072    9.8002 F       1  UNL1       -0.2045
      9 C          61.7486   85.5496   11.0018 C.2     1  UNL1        0.0302
     10 C          62.8271   84.5084   10.9511 C.2     1  UNL1        0.0141
     11 O          62.3126   85.2564   16.9139 O.2     1  UNL1       -0.2747
     12 C          62.5511   84.3805   15.7197 C.2     1  UNL1        0.2289
     13 C          62.9346   84.8471   14.3466 C.3     1  UNL1        0.0990
     14 C          63.0686   83.6393   13.4673 C.3     1  UNL1        0.1097
     15 C          62.7679   82.4264   14.2968 C.2     1  UNL1        0.2323
     16 O          62.7842   81.0048   13.8183 O.2     1  UNL1       -0.2743
     17 N          62.4481   82.8843   15.6890 N.am    1  UNL1       -0.2550
     18 H          62.2121   82.3048   16.4490 H       1  UNL1        0.1575
@<TRIPOS>BOND
     1    11    12    2
     2    12    13    1
     3    13    14    1
     4    14     1    1
     5     1     2    2
     6     2     3    1
     7     3     4    2
     8     4     5    1
     9     5     6    1
    10     6     7    2
    11     7     8    1
    12     7     9    1
    13     9    10    2
    14    14    15    1
    15    15    16    2
    16    15    17   am
    17    17    12   am
    18    10     1    1
    19    10     4    1
    20    17    18    1
@<TRIPOS>MOLECULE
*****
 18 20 0 0 0
SMALL
GASTEIGER

@<TRIPOS>ATOM
      1 C          62.8859   84.7991   10.4547 C.2     1  UNL1        0.0070
      2 C          63.7130   84.0307    9.4672 C.2     1  UNL1        0.0947
      3 N          64.3732   82.8986   10.1969 N.2     1  UNL1       -0.2481
      4 C          63.9540   82.9673   11.6355 C.2     1  UNL1        0.0632
      5 C          64.2906   82.1121   12.8210 C.3     1  UNL1        0.0741
      6 C          63.7079   82.4314   14.1657 C.2     1  UNL1        0.0098
      7 C          62.7886   83.6060   14.3251 C.2     1  UNL1        0.1363
      8 F          62.2059   83.9253   15.6699 F       1  UNL1       -0.2045
      9 C          62.4521   84.4612   13.1396 C.2     1  UNL1        0.0302
     10 C          63.0348   84.1419   11.7949 C.2     1  UNL1        0.0141
     11 O          59.4098   88.0734    8.2014 O.2     1  UNL1       -0.2747
     12 C          60.4578   87.5168    9.1191 C.2     1  UNL1        0.2289
     13 C          61.0498   86.1403    9.0494 C.3     1  UNL1        0.0990
     14 C          62.0555   86.0117   10.1549 C.3     1  UNL1        0.1097
     15 C          62.0850   87.3087   10.9077 C.2     1  UNL1        0.2323
     16 O          62.9502   87.6208   12.0927 O.2     1  UNL1       -0.2743
     17 N          61.0976   88.2390   10.2677 N.am    1  UNL1       -0.2550
     18 H          60.9035   89.1615   10.5515 H       1  UNL1        0.1575
@<TRIPOS>BOND
     1    11    12    2
     2    12    13    1
     3    13    14    1
     4    14     1    1
     5     1     2    2
     6     2     3    1
     7     3     4    2
     8     4     5    1
     9     5     6    1
    10     6     7    2
    11     7     8    1
    12     7     9    1
    13     9    10    2
    14    14    15    1
    15    15    16    2
    16    15    17   am
    17    17    12   am
    18    10     1    1
    19    10     4    1
    20    17    18    1
@<TRIPOS>MOLECULE
*****
 18 20 0 0 0
SMALL
GASTEIGER

@<TRIPOS>ATOM
      1 C          62.3002   86.5527   11.1980 C.2     1  UNL1        0.0070
      2 C          62.7580   87.8177   11.8614 C.2     1  UNL1        0.0947
      3 N          63.5105   87.4434   13.1039 N.2     1  UNL1       -0.2481
      4 C          63.5176   85.9470   13.2084 C.2     1  UNL1        0.0632
      5 C          64.1086   85.0146   14.2239 C.3     1  UNL1        0.0741
      6 C          63.9516   83.5318   14.0615 C.2     1  UNL1        0.0098
      7 C          63.2036   82.9813   12.8837 C.2     1  UNL1        0.1363
      8 F          63.0465   81.4983   12.7213 F       1  UNL1       -0.2045
      9 C          62.6126   83.9137   11.8681 C.2     1  UNL1        0.0302
     10 C          62.7696   85.3965   12.0305 C.2     1  UNL1        0.0141
     11 O          58.3820   86.9369    7.6793 O.2     1  UNL1       -0.2747
     12 C          59.7104   86.6366    8.3082 C.2     1  UNL1        0.2289
     13 C          60.0978   86.9220    9.7289 C.3     1  UNL1        0.0990
     14 C          61.5113   86.4600    9.9256 C.3     1  UNL1        0.1097
     15 C          61.9973   85.8892    8.6265 C.2     1  UNL1        0.2323
     16 O          63.3577   85.3107    8.3716 O.2     1  UNL1       -0.2743
     17 N          60.8844   85.9983    7.6268 N.am    1  UNL1       -0.2550
     18 H          60.9184   85.7028    6.6883 H       1  UNL1        0.1575
@<TRIPOS>BOND
     1    11    12    2
     2    12    13    1
     3    13    14    1
     4    14     1    1
     5     1     2    2
     6     2     3    1
     7     3     4    2
     8     4     5    1
     9     5     6    1
    10     6     7    2
    11     7     8    1
    12     7     9    1
    13     9    10    2
    14    14    15    1
    15    15    16    2
    16    15    17   am
    17    17    12   am
    18    10     1    1
    19    10     4    1
    20    17    18    1
@<TRIPOS>MOLECULE
*****
 18 20 0 0 0
SMALL
GASTEIGER

@<TRIPOS>ATOM
      1 C          62.1771   86.6906   10.2895 C.2     1  UNL1        0.0070
      2 C          62.3396   86.5118    8.8091 C.2     1  UNL1        0.0947
      3 N          62.9536   85.1644    8.5697 N.2     1  UNL1       -0.2481
      4 C          63.1706   84.5104    9.9021 C.2     1  UNL1        0.0632
      5 C          63.7431   83.1779   10.2848 C.3     1  UNL1        0.0741
      6 C          63.8358   82.7887   11.7304 C.2     1  UNL1        0.0098
      7 C          63.3559   83.7320   12.7934 C.2     1  UNL1        0.1363
      8 F          63.4485   83.3427   14.2390 F       1  UNL1       -0.2045
      9 C          62.7833   85.0645   12.4107 C.2     1  UNL1        0.0302
     10 C          62.6907   85.4537   10.9650 C.2     1  UNL1        0.0141
     11 O          58.9191   90.6184   11.6459 O.2     1  UNL1       -0.2747
     12 C          60.1045   89.7003   11.5977 C.2     1  UNL1        0.2289
     13 C          60.2729   88.5254   10.6806 C.3     1  UNL1        0.0990
     14 C          61.6020   87.8950   10.9743 C.3     1  UNL1        0.1097
     15 C          62.2548   88.6803   12.0728 C.2     1  UNL1        0.2323
     16 O          63.5975   88.3992   12.6796 O.2     1  UNL1       -0.2743
     17 N          61.3294   89.7961   12.4582 N.am    1  UNL1       -0.2550
     18 H          61.4966   90.4726   13.1537 H       1  UNL1        0.1575
@<TRIPOS>BOND
     1    11    12    2
     2    12    13    1
     3    13    14    1
     4    14     1    1
     5     1     2    2
     6     2     3    1
     7     3     4    2
     8     4     5    1
     9     5     6    1
    10     6     7    2
    11     7     8    1
    12     7     9    1
    13     9    10    2
    14    14    15    1
    15    15    16    2
    16    15    17   am
    17    17    12   am
    18    10     1    1
    19    10     4    1
    20    17    18    1
@<TRIPOS>MOLECULE
*****
 18 20 0 0 0
SMALL
GASTEIGER

@<TRIPOS>ATOM
      1 C          62.7534   84.6825   10.7122 C.2     1  UNL1        0.0070
      2 C          63.4081   84.2909    9.4207 C.2     1  UNL1        0.0947
      3 N          62.9307   85.2322    8.3549 N.2     1  UNL1       -0.2481
      4 C          61.9809   86.2056    8.9877 C.2     1  UNL1        0.0632
      5 C          61.2016   87.3574    8.4254 C.3     1  UNL1        0.0741
      6 C          60.3128   88.1694    9.3201 C.2     1  UNL1        0.0098
      7 C          60.2032   87.8297   10.7770 C.2     1  UNL1        0.1363
      8 F          59.3143   88.6418   11.6717 F       1  UNL1       -0.2045
      9 C          60.9824   86.6779   11.3393 C.2     1  UNL1        0.0302
     10 C          61.8713   85.8659   10.4446 C.2     1  UNL1        0.0141
     11 O          62.9856   80.9971   14.4864 O.2     1  UNL1       -0.2747
     12 C          63.0535   82.3151   13.7733 C.2     1  UNL1        0.2289
     13 C          62.7517   82.5492   12.3227 C.3     1  UNL1        0.0990
     14 C          62.9467   84.0091   12.0385 C.3     1  UNL1        0.1097
     15 C          63.3690   84.6771   13.3133 C.2     1  UNL1        0.2323
     16 O          63.6721   86.1360   13.4857 O.2     1  UNL1       -0.2743
     17 N          63.4350   83.6302   14.3856 N.am    1  UNL1       -0.2550
     18 H          63.6849   83.7800   15.3260 H       1  UNL1        0.1575
@<TRIPOS>BOND
     1    11    12    2
     2    12    13    1
     3    13    14    1
     4    14     1    1
     5     1     2    2
     6     2     3    1
     7     3     4    2
     8     4     5    1
     9     5     6    1
    10     6     7    2
    11     7     8    1
    12     7     9    1
    13     9    10    2
    14    14    15    1
    15    15    16    2
    16    15    17   am
    17    17    12   am
    18    10     1    1
    19    10     4    1
    20    17    18    1
@<TRIPOS>MOLECULE
*****
 18 20 0 0 0
SMALL
GASTEIGER

@<TRIPOS>ATOM
      1 C          62.2179   86.0366   11.0514 C.2     1  UNL1        0.0070
      2 C          61.3435   85.9874    9.8336 C.2     1  UNL1        0.0947
      3 N          61.0855   87.3972    9.3910 N.2     1  UNL1       -0.2481
      4 C          61.8004   88.3177   10.3352 C.2     1  UNL1        0.0632
      5 C          61.9045   89.8129   10.3931 C.3     1  UNL1        0.0741
      6 C          62.7085   90.4673   11.4772 C.2     1  UNL1        0.0098
      7 C          63.4084   89.6264   12.5034 C.2     1  UNL1        0.1363
      8 F          64.2124   90.2809   13.5876 F       1  UNL1       -0.2045
      9 C          63.3043   88.1312   12.4455 C.2     1  UNL1        0.0302
     10 C          62.5003   87.4768   11.3614 C.2     1  UNL1        0.0141
     11 O          63.2905   82.7101   15.0093 O.2     1  UNL1       -0.2747
     12 C          63.2145   83.3244   13.6428 C.2     1  UNL1        0.2289
     13 C          62.5613   84.6300   13.2982 C.3     1  UNL1        0.0990
     14 C          62.7215   84.8534   11.8236 C.3     1  UNL1        0.1097
     15 C          63.4737   83.6860   11.2570 C.2     1  UNL1        0.2323
     16 O          63.8544   83.4968    9.8185 O.2     1  UNL1       -0.2743
     17 N          63.7785   82.7409   12.3813 N.am    1  UNL1       -0.2550
     18 H          64.2634   81.8876   12.3046 H       1  UNL1        0.1575
@<TRIPOS>BOND
     1    11    12    2
     2    12    13    1
     3    13    14    1
     4    14     1    1
     5     1     2    2
     6     2     3    1
     7     3     4    2
     8     4     5    1
     9     5     6    1
    10     6     7    2
    11     7     8    1
    12     7     9    1
    13     9    10    2
    14    14    15    1
    15    15    16    2
    16    15    17   am
    17    17    12   am
    18    10     1    1
    19    10     4    1
    20    17    18    1
@<TRIPOS>MOLECULE
*****
 18 20 0 0 0
SMALL
GASTEIGER

@<TRIPOS>ATOM
      1 C          66.4914   92.6430   12.9433 C.2     1  UNL1        0.0070
      2 C          67.1234   93.1323   14.2126 C.2     1  UNL1        0.0947
      3 N          66.3601   92.5497   15.3649 N.2     1  UNL1       -0.2481
      4 C          65.2564   91.7003   14.8079 C.2     1  UNL1        0.0632
      5 C          64.1880   90.8819   15.4701 C.3     1  UNL1        0.0741
      6 C          63.2007   90.1210   14.6356 C.2     1  UNL1        0.0098
      7 C          63.2819   90.1787   13.1389 C.2     1  UNL1        0.1363
      8 F          62.2945   89.4178   12.3044 F       1  UNL1       -0.2045
      9 C          64.3503   90.9972   12.4767 C.2     1  UNL1        0.0302
     10 C          65.3375   91.7580   13.3112 C.2     1  UNL1        0.0141
     11 O          68.7137   92.3181    8.1645 O.2     1  UNL1       -0.2747
     12 C          67.9568   92.8302    9.3540 C.2     1  UNL1        0.2289
     13 C          67.7437   92.0978   10.6456 C.3     1  UNL1        0.0990
     14 C          66.9353   92.9796   11.5506 C.3     1  UNL1        0.1097
     15 C          66.6489   94.2569   10.8183 C.2     1  UNL1        0.2323
     16 O          65.8682   95.4220   11.3503 O.2     1  UNL1       -0.2743
     17 N          67.2802   94.1647    9.4608 N.am    1  UNL1       -0.2550
     18 H          67.2548   94.8582    8.7624 H       1  UNL1        0.1575
@<TRIPOS>BOND
     1    11    12    2
     2    12    13    1
     3    13    14    1
     4    14     1    1
     5     1     2    2
     6     2     3    1
     7     3     4    2
     8     4     5    1
     9     5     6    1
    10     6     7    2
    11     7     8    1
    12     7     9    1
    13     9    10    2
    14    14    15    1
    15    15    16    2
    16    15    17   am
    17    17    12   am
    18    10     1    1
    19    10     4    1
    20    17    18    1
@<TRIPOS>MOLECULE
*****
 18 20 0 0 0
SMALL
GASTEIGER

@<TRIPOS>ATOM
      1 C          62.3148   85.7463    9.5169 C.2     1  UNL1        0.0070
      2 C          63.0714   85.0917    8.3993 C.2     1  UNL1        0.0947
      3 N          63.8790   83.9696    8.9812 N.2     1  UNL1       -0.2481
      4 C          63.6216   83.9307   10.4585 C.2     1  UNL1        0.0632
      5 C          64.1425   83.0373   11.5449 C.3     1  UNL1        0.0741
      6 C          63.6967   83.2419   12.9624 C.2     1  UNL1        0.0098
      7 C          62.7299   84.3400   13.2934 C.2     1  UNL1        0.1363
      8 F          62.2841   84.5446   14.7110 F       1  UNL1       -0.2045
      9 C          62.2090   85.2334   12.2070 C.2     1  UNL1        0.0302
     10 C          62.6548   85.0288   10.7896 C.2     1  UNL1        0.0141
     11 O          60.0380   90.4590   10.2151 O.2     1  UNL1       -0.2747
     12 C          60.3354   89.0797    9.7060 C.2     1  UNL1        0.2289
     13 C          61.4630   88.1983   10.1551 C.3     1  UNL1        0.0990
     14 C          61.3819   86.9135    9.3851 C.3     1  UNL1        0.1097
     15 C          60.2043   87.0010    8.4603 C.2     1  UNL1        0.2323
     16 O          59.7526   85.9365    7.5048 O.2     1  UNL1       -0.2743
     17 N          59.5574   88.3397    8.6586 N.am    1  UNL1       -0.2550
     18 H          58.7619   88.6740    8.1845 H       1  UNL1        0.1575
@<TRIPOS>BOND
     1    11    12    2
     2    12    13    1
     3    13    14    1
     4    14     1    1
     5     1     2    2
     6     2     3    1
     7     3     4    2
     8     4     5    1
     9     5     6    1
    10     6     7    2
    11     7     8    1
    12     7     9    1
    13     9    10    2
    14    14    15    1
    15    15    16    2
    16    15    17   am
    17    17    12   am
    18    10     1    1
    19    10     4    1
    20    17    18    1
