@<TRIPOS>MOLECULE
*****
 33 36 0 0 0
SMALL
GASTEIGER

@<TRIPOS>ATOM
      1 N          64.4891   91.7814   12.1813 N.ar    1  UNL1       -0.2570
      2 C          65.7639   92.5507   12.3632 C.ar    1  UNL1        0.1213
      3 C          66.3768   92.6753   13.7265 C.ar    1  UNL1        0.0935
      4 C          65.7148   92.0306   14.9082 C.ar    1  UNL1        0.2674
      5 O          66.3276   92.1552   16.2716 O.2     1  UNL1       -0.2667
      6 N          64.4400   91.2613   14.7264 N.ar    1  UNL1       -0.2428
      7 C          63.8272   91.1367   13.3629 C.ar    1  UNL1        0.3357
      8 O          62.5524   90.3674   13.1811 O.2     1  UNL1       -0.2461
      9 N          66.4259   93.1954   11.1816 N.pl3   1  UNL1       -0.2930
     10 C          66.1805   94.6447   10.8828 C.3     1  UNL1        0.0922
     11 C          66.8425   95.2894    9.7012 C.3     1  UNL1        0.0229
     12 C          67.7498   94.4848    8.8184 C.3     1  UNL1        0.0190
     13 C          67.9952   93.0355    9.1172 C.3     1  UNL1        0.0709
     14 N          68.9025   92.2309    8.2344 N.3     1  UNL1       -0.3208
     15 C          67.3332   92.3908   10.2988 C.3     1  UNL1        0.1075
     16 H          68.9540   91.2734    8.5822 H       1  UNL1        0.1189
     17 H          69.8349   92.6445    8.2380 H       1  UNL1        0.1189
     18 C          63.8763   91.6568   10.8180 C.3     1  UNL1        0.1879
     19 C          61.7141   87.8842    9.6593 C.3     1  UNL1        0.0900
     20 C          62.4348   89.1417   10.0455 C.1     1  UNL1       -0.0881
     21 C          63.1555   90.3992   10.4317 C.1     1  UNL1       -0.0655
     22 C          63.7780   90.6166   15.9079 C.3     1  UNL1        0.1592
     23 C          63.6334   89.1246   15.9650 C.ar    1  UNL1        0.0820
     24 C          63.0241   88.4758   17.1724 C.ar    1  UNL1        0.0167
     25 C          62.8795   86.9840   17.2294 C.ar    1  UNL1        0.0028
     26 C          63.3443   86.1409   16.0791 C.ar    1  UNL1        0.0185
     27 C          63.1997   84.6489   16.1362 C.ar    1  UNL1        0.0129
     28 C          63.6645   83.8058   14.9859 C.ar    1  UNL1        0.0578
     29 CL         63.5199   82.3139   15.0430 Cl      1  UNL1       -0.0822
     30 C          64.2739   84.4547   13.7786 C.ar    1  UNL1        0.0129
     31 C          64.4184   85.9466   13.7215 C.ar    1  UNL1        0.0200
     32 C          63.9536   86.7897   14.8718 C.ar    1  UNL1        0.0810
     33 N          64.0982   88.2815   14.8148 N.ar    1  UNL1       -0.2477
@<TRIPOS>BOND
     1    19    20    1
     2    20    21    3
     3    21    18    1
     4    18     1    1
     5     1     2   ar
     6     2     9    1
     7     9    10    1
     8    10    11    1
     9    11    12    1
    10    12    13    1
    11    13    14    1
    12    13    15    1
    13     2     3   ar
    14     3     4   ar
    15     4     5    2
    16     4     6   ar
    17     6    22    1
    18    22    23    1
    19    23    24   ar
    20    24    25   ar
    21    25    26   ar
    22    26    27   ar
    23    27    28   ar
    24    28    29    1
    25    28    30   ar
    26    30    31   ar
    27    31    32   ar
    28    32    33   ar
    29     6     7   ar
    30     7     8    2
    31     7     1   ar
    32    15     9    1
    33    33    23   ar
    34    32    26   ar
    35    14    16    1
    36    14    17    1
@<TRIPOS>MOLECULE
*****
 33 36 0 0 0
SMALL
GASTEIGER

@<TRIPOS>ATOM
      1 N          64.7268   91.5873   12.3992 N.ar    1  UNL1       -0.2570
      2 C          65.1164   91.4367   13.8398 C.ar    1  UNL1        0.1213
      3 C          64.1913   90.7479   14.7989 C.ar    1  UNL1        0.0935
      4 C          62.8766   90.2096   14.3173 C.ar    1  UNL1        0.2674
      5 O          61.9516   89.5208   15.2763 O.2     1  UNL1       -0.2667
      6 N          62.4870   90.3603   12.8766 N.ar    1  UNL1       -0.2428
      7 C          63.4121   91.0491   11.9175 C.ar    1  UNL1        0.3357
      8 O          63.0225   91.1997   10.4769 O.2     1  UNL1       -0.2461
      9 N          66.4310   91.9749   14.3214 N.pl3   1  UNL1       -0.2930
     10 C          66.4849   92.8350   15.5492 C.3     1  UNL1        0.0922
     11 C          67.7995   93.3731   16.0309 C.3     1  UNL1        0.0229
     12 C          69.0604   93.0513   15.2848 C.3     1  UNL1        0.0190
     13 C          69.0066   92.1912   14.0570 C.3     1  UNL1        0.0709
     14 N          70.2674   91.8694   13.3109 N.3     1  UNL1       -0.3208
     15 C          67.6919   91.6530   13.5753 C.3     1  UNL1        0.1075
     16 H          70.0467   91.2789   12.5091 H       1  UNL1        0.1189
     17 H          70.9118   91.3764   13.9290 H       1  UNL1        0.1189
     18 C          65.6518   92.2761   11.4401 C.3     1  UNL1        0.1879
     19 C          66.0138   96.7612   11.4915 C.3     1  UNL1        0.0900
     20 C          65.8931   95.2662   11.4744 C.1     1  UNL1       -0.0881
     21 C          65.7725   93.7712   11.4572 C.1     1  UNL1       -0.0655
     22 C          61.1724   89.8221   12.3950 C.3     1  UNL1        0.1592
     23 C          61.1193   88.9568   11.1708 C.ar    1  UNL1        0.0820
     24 C          60.1530   89.2751   10.0686 C.ar    1  UNL1        0.0167
     25 C          60.1000   88.4099    8.8446 C.ar    1  UNL1        0.0028
     26 C          61.0133   87.2262    8.7226 C.ar    1  UNL1        0.0185
     27 C          60.9602   86.3609    7.4985 C.ar    1  UNL1        0.0129
     28 C          61.8735   85.1773    7.3765 C.ar    1  UNL1        0.0578
     29 CL         61.8205   84.3120    6.1524 Cl      1  UNL1       -0.0822
     30 C          62.8399   84.8589    8.4788 C.ar    1  UNL1        0.0129
     31 C          62.8929   85.7242    9.7029 C.ar    1  UNL1        0.0200
     32 C          61.9796   86.9079    9.8248 C.ar    1  UNL1        0.0810
     33 N          62.0326   87.7731   11.0489 N.ar    1  UNL1       -0.2477
@<TRIPOS>BOND
     1    19    20    1
     2    20    21    3
     3    21    18    1
     4    18     1    1
     5     1     2   ar
     6     2     9    1
     7     9    10    1
     8    10    11    1
     9    11    12    1
    10    12    13    1
    11    13    14    1
    12    13    15    1
    13     2     3   ar
    14     3     4   ar
    15     4     5    2
    16     4     6   ar
    17     6    22    1
    18    22    23    1
    19    23    24   ar
    20    24    25   ar
    21    25    26   ar
    22    26    27   ar
    23    27    28   ar
    24    28    29    1
    25    28    30   ar
    26    30    31   ar
    27    31    32   ar
    28    32    33   ar
    29     6     7   ar
    30     7     8    2
    31     7     1   ar
    32    15     9    1
    33    33    23   ar
    34    32    26   ar
    35    14    16    1
    36    14    17    1
@<TRIPOS>MOLECULE
*****
 33 36 0 0 0
SMALL
GASTEIGER

@<TRIPOS>ATOM
      1 N          64.9490   91.6697   12.4115 N.ar    1  UNL1       -0.2570
      2 C          65.4991   91.2042   13.7271 C.ar    1  UNL1        0.1213
      3 C          64.9196   89.9932   14.3961 C.ar    1  UNL1        0.0935
      4 C          63.7900   89.2475   13.7494 C.ar    1  UNL1        0.2674
      5 O          63.2105   88.0365   14.4184 O.2     1  UNL1       -0.2667
      6 N          63.2399   89.7130   12.4338 N.ar    1  UNL1       -0.2428
      7 C          63.8195   90.9241   11.7649 C.ar    1  UNL1        0.3357
      8 O          63.2695   91.3895   10.4493 O.2     1  UNL1       -0.2461
      9 N          66.6286   91.9498   14.3738 N.pl3   1  UNL1       -0.2930
     10 C          66.3595   92.8569   15.5378 C.3     1  UNL1        0.0922
     11 C          67.4890   93.6025   16.1844 C.3     1  UNL1        0.0229
     12 C          68.8877   93.4411   15.6671 C.3     1  UNL1        0.0190
     13 C          69.1569   92.5340   14.5032 C.3     1  UNL1        0.0709
     14 N          70.5556   92.3726   13.9859 N.3     1  UNL1       -0.3208
     15 C          68.0273   91.7884   13.8565 C.3     1  UNL1        0.1075
     16 H          70.5541   91.7243   13.1984 H       1  UNL1        0.1189
     17 H          71.1521   92.0056   14.7274 H       1  UNL1        0.1189
     18 C          65.5285   92.8807   11.7426 C.3     1  UNL1        0.1879
     19 C          68.8857   92.4252    8.7808 C.3     1  UNL1        0.0900
     20 C          67.7667   92.5770    9.7681 C.1     1  UNL1       -0.0881
     21 C          66.6476   92.7288   10.7553 C.1     1  UNL1       -0.0655
     22 C          62.1104   88.9674   11.7872 C.3     1  UNL1        0.1592
     23 C          62.3237   87.5695   11.2865 C.ar    1  UNL1        0.0820
     24 C          62.3275   87.2933    9.8122 C.ar    1  UNL1        0.0167
     25 C          62.5408   85.8955    9.3116 C.ar    1  UNL1        0.0028
     26 C          62.7504   84.7740   10.2853 C.ar    1  UNL1        0.0185
     27 C          62.9637   83.3761    9.7846 C.ar    1  UNL1        0.0129
     28 C          63.1732   82.2545   10.7584 C.ar    1  UNL1        0.0578
     29 CL         63.3865   80.8567   10.2578 Cl      1  UNL1       -0.0822
     30 C          63.1694   82.5308   12.2327 C.ar    1  UNL1        0.0129
     31 C          62.9561   83.9285   12.7333 C.ar    1  UNL1        0.0200
     32 C          62.7466   85.0501   11.7596 C.ar    1  UNL1        0.0810
     33 N          62.5333   86.4479   12.2602 N.ar    1  UNL1       -0.2477
@<TRIPOS>BOND
     1    19    20    1
     2    20    21    3
     3    21    18    1
     4    18     1    1
     5     1     2   ar
     6     2     9    1
     7     9    10    1
     8    10    11    1
     9    11    12    1
    10    12    13    1
    11    13    14    1
    12    13    15    1
    13     2     3   ar
    14     3     4   ar
    15     4     5    2
    16     4     6   ar
    17     6    22    1
    18    22    23    1
    19    23    24   ar
    20    24    25   ar
    21    25    26   ar
    22    26    27   ar
    23    27    28   ar
    24    28    29    1
    25    28    30   ar
    26    30    31   ar
    27    31    32   ar
    28    32    33   ar
    29     6     7   ar
    30     7     8    2
    31     7     1   ar
    32    15     9    1
    33    33    23   ar
    34    32    26   ar
    35    14    16    1
    36    14    17    1
@<TRIPOS>MOLECULE
*****
 33 36 0 0 0
SMALL
GASTEIGER

@<TRIPOS>ATOM
      1 N          63.5429   90.6226   14.3515 N.ar    1  UNL1       -0.2570
      2 C          64.5916   91.2847   13.5078 C.ar    1  UNL1        0.1213
      3 C          64.3579   91.4829   12.0394 C.ar    1  UNL1        0.0935
      4 C          63.0754   91.0188   11.4148 C.ar    1  UNL1        0.2674
      5 O          62.8417   91.2170    9.9464 O.2     1  UNL1       -0.2667
      6 N          62.0268   90.3567   12.2585 N.ar    1  UNL1       -0.2428
      7 C          62.2605   90.1586   13.7269 C.ar    1  UNL1        0.3357
      8 O          61.2119   89.4964   14.5706 O.2     1  UNL1       -0.2461
      9 N          65.8739   91.7487   14.1324 N.pl3   1  UNL1       -0.2930
     10 C          65.8600   92.3804   15.4929 C.3     1  UNL1        0.0922
     11 C          67.1424   92.8444   16.1175 C.3     1  UNL1        0.0229
     12 C          68.4387   92.6768   15.3817 C.3     1  UNL1        0.0190
     13 C          68.4527   92.0452   14.0212 C.3     1  UNL1        0.0709
     14 N          69.7490   91.8777   13.2854 N.3     1  UNL1       -0.3208
     15 C          67.1703   91.5812   13.3966 C.3     1  UNL1        0.1075
     16 H          69.5733   91.4341   12.3838 H       1  UNL1        0.1189
     17 H          70.3788   91.2931   13.8349 H       1  UNL1        0.1189
     18 C          63.7766   90.4245   15.8199 C.3     1  UNL1        0.1879
     19 C          62.5889   86.5545   17.7853 C.3     1  UNL1        0.0900
     20 C          62.9848   87.8445   17.1301 C.1     1  UNL1       -0.0881
     21 C          63.3807   89.1344   16.4750 C.1     1  UNL1       -0.0655
     22 C          60.7444   89.8927   11.6339 C.3     1  UNL1        0.1592
     23 C          60.7750   88.9183   10.4938 C.ar    1  UNL1        0.0820
     24 C          59.7477   89.0062    9.4043 C.ar    1  UNL1        0.0167
     25 C          59.7784   88.0319    8.2643 C.ar    1  UNL1        0.0028
     26 C          60.8362   86.9696    8.2138 C.ar    1  UNL1        0.0185
     27 C          60.8668   85.9952    7.0737 C.ar    1  UNL1        0.0129
     28 C          61.9246   84.9329    7.0232 C.ar    1  UNL1        0.0578
     29 CL         61.9552   83.9586    5.8832 Cl      1  UNL1       -0.0822
     30 C          62.9519   84.8451    8.1127 C.ar    1  UNL1        0.0129
     31 C          62.9213   85.8194    9.2527 C.ar    1  UNL1        0.0200
     32 C          61.8634   86.8817    9.3033 C.ar    1  UNL1        0.0810
     33 N          61.8328   87.8560   10.4433 N.ar    1  UNL1       -0.2477
@<TRIPOS>BOND
     1    19    20    1
     2    20    21    3
     3    21    18    1
     4    18     1    1
     5     1     2   ar
     6     2     9    1
     7     9    10    1
     8    10    11    1
     9    11    12    1
    10    12    13    1
    11    13    14    1
    12    13    15    1
    13     2     3   ar
    14     3     4   ar
    15     4     5    2
    16     4     6   ar
    17     6    22    1
    18    22    23    1
    19    23    24   ar
    20    24    25   ar
    21    25    26   ar
    22    26    27   ar
    23    27    28   ar
    24    28    29    1
    25    28    30   ar
    26    30    31   ar
    27    31    32   ar
    28    32    33   ar
    29     6     7   ar
    30     7     8    2
    31     7     1   ar
    32    15     9    1
    33    33    23   ar
    34    32    26   ar
    35    14    16    1
    36    14    17    1
@<TRIPOS>MOLECULE
*****
 33 36 0 0 0
SMALL
GASTEIGER

@<TRIPOS>ATOM
      1 N          63.4444   86.4374   13.0668 N.ar    1  UNL1       -0.2570
      2 C          62.8596   85.6380   11.9403 C.ar    1  UNL1        0.1213
      3 C          62.2060   86.3368   10.7851 C.ar    1  UNL1        0.0935
      4 C          62.1373   87.8350   10.7563 C.ar    1  UNL1        0.2674
      5 O          61.4837   88.5337    9.6011 O.2     1  UNL1       -0.2667
      6 N          62.7221   88.6343   11.8828 N.ar    1  UNL1       -0.2428
      7 C          63.3757   87.9355   13.0381 C.ar    1  UNL1        0.3357
      8 O          63.9605   88.7348   14.1646 O.2     1  UNL1       -0.2461
      9 N          62.9283   84.1399   11.9690 N.pl3   1  UNL1       -0.2930
     10 C          63.4614   83.3907   10.7838 C.3     1  UNL1        0.0922
     11 C          63.5301   81.8926   10.8125 C.3     1  UNL1        0.0229
     12 C          63.0657   81.1436   12.0264 C.3     1  UNL1        0.0190
     13 C          62.5326   81.8927   13.2115 C.3     1  UNL1        0.0709
     14 N          62.0683   81.1437   14.4253 N.3     1  UNL1       -0.3208
     15 C          62.4639   83.3909   13.1828 C.3     1  UNL1        0.1075
     16 H          61.7403   81.8058   15.1285 H       1  UNL1        0.1189
     17 H          62.8425   80.5994   14.8058 H       1  UNL1        0.1189
     18 C          64.0979   85.7386   14.2220 C.3     1  UNL1        0.1879
     19 C          62.7212   86.5694   18.4249 C.3     1  UNL1        0.0900
     20 C          63.1801   86.2925   17.0240 C.1     1  UNL1       -0.0881
     21 C          63.6390   86.0155   15.6230 C.1     1  UNL1       -0.0655
     22 C          62.6534   90.1324   11.8541 C.3     1  UNL1        0.1592
     23 C          63.8131   90.9461   12.3473 C.ar    1  UNL1        0.0820
     24 C          64.7043   91.6517   11.3687 C.ar    1  UNL1        0.0167
     25 C          65.8640   92.4653   11.8619 C.ar    1  UNL1        0.0028
     26 C          66.1324   92.5731   13.3337 C.ar    1  UNL1        0.0185
     27 C          67.2922   93.3867   13.8269 C.ar    1  UNL1        0.0129
     28 C          67.5606   93.4946   15.2988 C.ar    1  UNL1        0.0578
     29 CL         68.7203   94.3082   15.7920 Cl      1  UNL1       -0.0822
     30 C          66.6694   92.7889   16.2774 C.ar    1  UNL1        0.0129
     31 C          65.5097   91.9753   15.7842 C.ar    1  UNL1        0.0200
     32 C          65.2412   91.8675   14.3124 C.ar    1  UNL1        0.0810
     33 N          64.0816   91.0539   13.8192 N.ar    1  UNL1       -0.2477
@<TRIPOS>BOND
     1    19    20    1
     2    20    21    3
     3    21    18    1
     4    18     1    1
     5     1     2   ar
     6     2     9    1
     7     9    10    1
     8    10    11    1
     9    11    12    1
    10    12    13    1
    11    13    14    1
    12    13    15    1
    13     2     3   ar
    14     3     4   ar
    15     4     5    2
    16     4     6   ar
    17     6    22    1
    18    22    23    1
    19    23    24   ar
    20    24    25   ar
    21    25    26   ar
    22    26    27   ar
    23    27    28   ar
    24    28    29    1
    25    28    30   ar
    26    30    31   ar
    27    31    32   ar
    28    32    33   ar
    29     6     7   ar
    30     7     8    2
    31     7     1   ar
    32    15     9    1
    33    33    23   ar
    34    32    26   ar
    35    14    16    1
    36    14    17    1
@<TRIPOS>MOLECULE
*****
 33 36 0 0 0
SMALL
GASTEIGER

@<TRIPOS>ATOM
      1 N          65.5144   92.5474   12.5772 N.ar    1  UNL1       -0.2570
      2 C          65.3114   92.5414   11.0910 C.ar    1  UNL1        0.1213
      3 C          64.3351   91.5861   10.4712 C.ar    1  UNL1        0.0935
      4 C          63.5617   90.6367   11.3376 C.ar    1  UNL1        0.2674
      5 O          62.5854   89.6814   10.7179 O.2     1  UNL1       -0.2667
      6 N          63.7647   90.6427   12.8238 N.ar    1  UNL1       -0.2428
      7 C          64.7411   91.5981   13.4436 C.ar    1  UNL1        0.3357
      8 O          64.9441   91.6040   14.9298 O.2     1  UNL1       -0.2461
      9 N          66.0847   93.4908   10.2246 N.pl3   1  UNL1       -0.2930
     10 C          67.5342   93.2328    9.9372 C.3     1  UNL1        0.0922
     11 C          68.3074   94.1822    9.0707 C.3     1  UNL1        0.0229
     12 C          67.6313   95.3894    8.4917 C.3     1  UNL1        0.0190
     13 C          66.1819   95.6474    8.7790 C.3     1  UNL1        0.0709
     14 N          65.5058   96.8547    8.2000 N.3     1  UNL1       -0.3208
     15 C          65.4085   94.6980    9.6455 C.3     1  UNL1        0.1075
     16 H          64.5298   96.8724    8.4958 H       1  UNL1        0.1189
     17 H          65.5518   96.8145    7.1818 H       1  UNL1        0.1189
     18 C          66.4907   93.5027   13.1969 C.3     1  UNL1        0.1879
     19 C          69.1557   92.1338   16.5546 C.3     1  UNL1        0.0900
     20 C          68.2674   92.5901   15.4354 C.1     1  UNL1       -0.0881
     21 C          67.3790   93.0464   14.3162 C.1     1  UNL1       -0.0655
     22 C          62.9914   89.6933   13.6903 C.3     1  UNL1        0.1592
     23 C          63.3698   88.2426   13.7368 C.ar    1  UNL1        0.0820
     24 C          64.2758   87.7382   14.8207 C.ar    1  UNL1        0.0167
     25 C          64.6541   86.2875   14.8673 C.ar    1  UNL1        0.0028
     26 C          64.1265   85.3411   13.8299 C.ar    1  UNL1        0.0185
     27 C          64.5050   83.8903   13.8765 C.ar    1  UNL1        0.0129
     28 C          63.9774   82.9440   12.8392 C.ar    1  UNL1        0.0578
     29 CL         64.3557   81.4932   12.8858 Cl      1  UNL1       -0.0822
     30 C          63.0714   83.4484   11.7553 C.ar    1  UNL1        0.0129
     31 C          62.6930   84.8991   11.7087 C.ar    1  UNL1        0.0200
     32 C          63.2206   85.8455   12.7461 C.ar    1  UNL1        0.0810
     33 N          62.8422   87.2962   12.6995 N.ar    1  UNL1       -0.2477
@<TRIPOS>BOND
     1    19    20    1
     2    20    21    3
     3    21    18    1
     4    18     1    1
     5     1     2   ar
     6     2     9    1
     7     9    10    1
     8    10    11    1
     9    11    12    1
    10    12    13    1
    11    13    14    1
    12    13    15    1
    13     2     3   ar
    14     3     4   ar
    15     4     5    2
    16     4     6   ar
    17     6    22    1
    18    22    23    1
    19    23    24   ar
    20    24    25   ar
    21    25    26   ar
    22    26    27   ar
    23    27    28   ar
    24    28    29    1
    25    28    30   ar
    26    30    31   ar
    27    31    32   ar
    28    32    33   ar
    29     6     7   ar
    30     7     8    2
    31     7     1   ar
    32    15     9    1
    33    33    23   ar
    34    32    26   ar
    35    14    16    1
    36    14    17    1
@<TRIPOS>MOLECULE
*****
 33 36 0 0 0
SMALL
GASTEIGER

@<TRIPOS>ATOM
      1 N          64.7850   91.9015   12.6825 N.ar    1  UNL1       -0.2570
      2 C          65.3789   91.4341   13.9781 C.ar    1  UNL1        0.1213
      3 C          64.7152   90.3355   14.7544 C.ar    1  UNL1        0.0935
      4 C          63.4574   89.7044   14.2350 C.ar    1  UNL1        0.2674
      5 O          62.7937   88.6058   15.0112 O.2     1  UNL1       -0.2667
      6 N          62.8634   90.1718   12.9393 N.ar    1  UNL1       -0.2428
      7 C          63.5273   91.2704   12.1631 C.ar    1  UNL1        0.3357
      8 O          62.9333   91.7379   10.8674 O.2     1  UNL1       -0.2461
      9 N          66.6366   92.0652   14.4976 N.pl3   1  UNL1       -0.2930
     10 C          66.5818   92.9796   15.6854 C.3     1  UNL1        0.0922
     11 C          67.8395   93.6107   16.2048 C.3     1  UNL1        0.0229
     12 C          69.1521   93.3274   15.5364 C.3     1  UNL1        0.0190
     13 C          69.2071   92.4130   14.3487 C.3     1  UNL1        0.0709
     14 N          70.5197   92.1297   13.6803 N.3     1  UNL1       -0.3208
     15 C          67.9493   91.7819   13.8292 C.3     1  UNL1        0.1075
     16 H          70.3720   91.4935   12.8969 H       1  UNL1        0.1189
     17 H          71.1572   91.7008   14.3512 H       1  UNL1        0.1189
     18 C          65.4487   93.0001   11.9063 C.3     1  UNL1        0.1879
     19 C          68.6734   92.0176    8.9254 C.3     1  UNL1        0.0900
     20 C          67.5985   92.3451    9.9190 C.1     1  UNL1       -0.0881
     21 C          66.5237   92.6726   10.9126 C.1     1  UNL1       -0.0655
     22 C          61.6057   89.5407   12.4199 C.3     1  UNL1        0.1592
     23 C          61.6815   88.4664   11.3758 C.ar    1  UNL1        0.0820
     24 C          62.7082   87.3791   11.4916 C.ar    1  UNL1        0.0167
     25 C          62.7840   86.3048   10.4475 C.ar    1  UNL1        0.0028
     26 C          61.8330   86.3180    9.2875 C.ar    1  UNL1        0.0185
     27 C          61.9088   85.2436    8.2434 C.ar    1  UNL1        0.0129
     28 C          60.9578   85.2568    7.0834 C.ar    1  UNL1        0.0578
     29 CL         61.0335   84.1825    6.0393 Cl      1  UNL1       -0.0822
     30 C          59.9310   86.3442    6.9676 C.ar    1  UNL1        0.0129
     31 C          59.8553   87.4185    8.0117 C.ar    1  UNL1        0.0200
     32 C          60.8063   87.4053    9.1717 C.ar    1  UNL1        0.0810
     33 N          60.7305   88.4796   10.2158 N.ar    1  UNL1       -0.2477
@<TRIPOS>BOND
     1    19    20    1
     2    20    21    3
     3    21    18    1
     4    18     1    1
     5     1     2   ar
     6     2     9    1
     7     9    10    1
     8    10    11    1
     9    11    12    1
    10    12    13    1
    11    13    14    1
    12    13    15    1
    13     2     3   ar
    14     3     4   ar
    15     4     5    2
    16     4     6   ar
    17     6    22    1
    18    22    23    1
    19    23    24   ar
    20    24    25   ar
    21    25    26   ar
    22    26    27   ar
    23    27    28   ar
    24    28    29    1
    25    28    30   ar
    26    30    31   ar
    27    31    32   ar
    28    32    33   ar
    29     6     7   ar
    30     7     8    2
    31     7     1   ar
    32    15     9    1
    33    33    23   ar
    34    32    26   ar
    35    14    16    1
    36    14    17    1
@<TRIPOS>MOLECULE
*****
 33 36 0 0 0
SMALL
GASTEIGER

@<TRIPOS>ATOM
      1 N          64.4673   91.5883   11.6135 N.ar    1  UNL1       -0.2570
      2 C          65.7882   92.2706   11.8121 C.ar    1  UNL1        0.1213
      3 C          66.5897   92.0067   13.0522 C.ar    1  UNL1        0.0935
      4 C          66.0703   91.0605   14.0938 C.ar    1  UNL1        0.2674
      5 O          66.8717   90.7967   15.3340 O.2     1  UNL1       -0.2667
      6 N          64.7493   90.3782   13.8952 N.ar    1  UNL1       -0.2428
      7 C          63.9478   90.6421   12.6550 C.ar    1  UNL1        0.3357
      8 O          62.6268   89.9598   12.4564 O.2     1  UNL1       -0.2461
      9 N          66.3077   93.2168   10.7706 N.pl3   1  UNL1       -0.2930
     10 C          67.4652   92.8168    9.9044 C.3     1  UNL1        0.0922
     11 C          67.9847   93.7630    8.8628 C.3     1  UNL1        0.0229
     12 C          67.3468   95.1092    8.6875 C.3     1  UNL1        0.0190
     13 C          66.1893   95.5092    9.5536 C.3     1  UNL1        0.0709
     14 N          65.5514   96.8554    9.3783 N.3     1  UNL1       -0.3208
     15 C          65.6698   94.5630   10.5952 C.3     1  UNL1        0.1075
     16 H          64.7861   96.9584   10.0446 H       1  UNL1        0.1189
     17 H          65.1888   96.9387    8.4285 H       1  UNL1        0.1189
     18 C          63.6658   91.8521   10.3734 C.3     1  UNL1        0.1879
     19 C          60.4841   88.9406    9.0888 C.3     1  UNL1        0.0900
     20 C          61.5446   89.9111    9.5170 C.1     1  UNL1       -0.0881
     21 C          62.6052   90.8816    9.9452 C.1     1  UNL1       -0.0655
     22 C          64.2298   89.4320   14.9368 C.3     1  UNL1        0.1592
     23 C          64.0768   87.9745   14.6166 C.ar    1  UNL1        0.0820
     24 C          64.4811   86.9389   15.6235 C.ar    1  UNL1        0.0167
     25 C          64.3281   85.4816   15.3033 C.ar    1  UNL1        0.0028
     26 C          63.7707   85.0598   13.9761 C.ar    1  UNL1        0.0185
     27 C          63.6177   83.6023   13.6559 C.ar    1  UNL1        0.0129
     28 C          63.0603   83.1805   12.3287 C.ar    1  UNL1        0.0578
     29 CL         62.9072   81.7232   12.0085 Cl      1  UNL1       -0.0822
     30 C          62.6559   84.2162   11.3217 C.ar    1  UNL1        0.0129
     31 C          62.8089   85.6736   11.6420 C.ar    1  UNL1        0.0200
     32 C          63.3663   86.0954   12.9692 C.ar    1  UNL1        0.0810
     33 N          63.5194   87.5528   13.2894 N.ar    1  UNL1       -0.2477
@<TRIPOS>BOND
     1    19    20    1
     2    20    21    3
     3    21    18    1
     4    18     1    1
     5     1     2   ar
     6     2     9    1
     7     9    10    1
     8    10    11    1
     9    11    12    1
    10    12    13    1
    11    13    14    1
    12    13    15    1
    13     2     3   ar
    14     3     4   ar
    15     4     5    2
    16     4     6   ar
    17     6    22    1
    18    22    23    1
    19    23    24   ar
    20    24    25   ar
    21    25    26   ar
    22    26    27   ar
    23    27    28   ar
    24    28    29    1
    25    28    30   ar
    26    30    31   ar
    27    31    32   ar
    28    32    33   ar
    29     6     7   ar
    30     7     8    2
    31     7     1   ar
    32    15     9    1
    33    33    23   ar
    34    32    26   ar
    35    14    16    1
    36    14    17    1
@<TRIPOS>MOLECULE
*****
 33 36 0 0 0
SMALL
GASTEIGER

@<TRIPOS>ATOM
      1 N          65.8948   92.6191   13.9653 N.ar    1  UNL1       -0.2570
      2 C          65.4202   92.4182   12.5566 C.ar    1  UNL1        0.1213
      3 C          64.2765   91.4892   12.2758 C.ar    1  UNL1        0.0935
      4 C          63.6073   90.7611   13.4037 C.ar    1  UNL1        0.2674
      5 O          62.4636   89.8321   13.1228 O.2     1  UNL1       -0.2667
      6 N          64.0819   90.9620   14.8124 N.ar    1  UNL1       -0.2428
      7 C          65.2257   91.8910   15.0932 C.ar    1  UNL1        0.3357
      8 O          65.7003   92.0919   16.5018 O.2     1  UNL1       -0.2461
      9 N          66.0894   93.1463   11.4287 N.pl3   1  UNL1       -0.2930
     10 C          65.8085   94.6027   11.2048 C.3     1  UNL1        0.0922
     11 C          66.4776   95.3307   10.0769 C.3     1  UNL1        0.0229
     12 C          67.4276   94.6025    9.1729 C.3     1  UNL1        0.0190
     13 C          67.7085   93.1462    9.3969 C.3     1  UNL1        0.0709
     14 N          68.6586   92.4179    8.4929 N.3     1  UNL1       -0.3208
     15 C          67.0394   92.4180   10.5248 C.3     1  UNL1        0.1075
     16 H          68.7302   91.4443    8.7884 H       1  UNL1        0.1189
     17 H          69.5781   92.8566    8.5418 H       1  UNL1        0.1189
     18 C          67.0385   93.5480   14.2461 C.3     1  UNL1        0.1879
     19 C          70.3650   92.2567   16.9878 C.3     1  UNL1        0.0900
     20 C          69.2562   92.6871   16.0740 C.1     1  UNL1       -0.0881
     21 C          68.1474   93.1176   15.1601 C.1     1  UNL1       -0.0655
     22 C          63.4128   90.2339   15.9402 C.3     1  UNL1        0.1592
     23 C          63.4004   88.7341   15.9622 C.ar    1  UNL1        0.0820
     24 C          62.9320   88.0058   17.1870 C.ar    1  UNL1        0.0167
     25 C          62.9197   86.5060   17.2089 C.ar    1  UNL1        0.0028
     26 C          63.3758   85.7345   16.0060 C.ar    1  UNL1        0.0185
     27 C          63.3634   84.2347   16.0280 C.ar    1  UNL1        0.0129
     28 C          63.8195   83.4633   14.8251 C.ar    1  UNL1        0.0578
     29 CL         63.8072   81.9635   14.8471 Cl      1  UNL1       -0.0822
     30 C          64.2880   84.1916   13.6003 C.ar    1  UNL1        0.0129
     31 C          64.3003   85.6914   13.5784 C.ar    1  UNL1        0.0200
     32 C          63.8442   86.4629   14.7813 C.ar    1  UNL1        0.0810
     33 N          63.8565   87.9626   14.7593 N.ar    1  UNL1       -0.2477
@<TRIPOS>BOND
     1    19    20    1
     2    20    21    3
     3    21    18    1
     4    18     1    1
     5     1     2   ar
     6     2     9    1
     7     9    10    1
     8    10    11    1
     9    11    12    1
    10    12    13    1
    11    13    14    1
    12    13    15    1
    13     2     3   ar
    14     3     4   ar
    15     4     5    2
    16     4     6   ar
    17     6    22    1
    18    22    23    1
    19    23    24   ar
    20    24    25   ar
    21    25    26   ar
    22    26    27   ar
    23    27    28   ar
    24    28    29    1
    25    28    30   ar
    26    30    31   ar
    27    31    32   ar
    28    32    33   ar
    29     6     7   ar
    30     7     8    2
    31     7     1   ar
    32    15     9    1
    33    33    23   ar
    34    32    26   ar
    35    14    16    1
    36    14    17    1
