@<TRIPOS>MOLECULE
*****
 31 35 0 0 0
SMALL
GASTEIGER

@<TRIPOS>ATOM
      1 C          63.7193   87.3765   14.7216 C.2     1  UNL1        0.3845
      2 N          63.3458   87.6620   16.1460 N.2     1  UNL1        0.1565
      3 O          63.5234   89.0423   16.7057 O.2     1  UNL1       -0.2793
      4 C          64.0747   90.1371   15.8410 C.3     1  UNL1        0.2703
      5 C          64.4482   89.8516   14.4166 C.3     1  UNL1        0.2250
      6 N          64.2705   88.4712   13.8569 N.pl3   1  UNL1       -0.2108
      7 H          64.5156   88.2838   12.9220 H       1  UNL1        0.2927
      8 C          64.9994   90.9463   13.5519 C.ar    1  UNL1        0.0236
      9 C          66.3297   91.5592   13.8750 C.ar    1  UNL1        0.0005
     10 C          66.8810   92.6540   13.0103 C.ar    1  UNL1        0.0112
     11 C          66.1018   93.1358   11.8225 C.ar    1  UNL1        0.0577
     12 CL         66.6530   94.2305   10.9578 Cl      1  UNL1       -0.0822
     13 C          64.7714   92.5228   11.4994 C.ar    1  UNL1        0.0112
     14 C          64.2202   91.4281   12.3641 C.ar    1  UNL1        0.0005
     15 C          62.8672   84.4341   12.1984 C.ar    1  UNL1        0.2418
     16 N          63.0449   85.8143   12.7582 N.ar    1  UNL1       -0.2028
     17 C          63.5415   85.9962   14.1618 C.ar    1  UNL1        0.1702
     18 C          63.8604   84.7979   15.0058 C.ar    1  UNL1        0.0285
     19 C          63.6827   83.4176   14.4460 C.ar    1  UNL1        0.0241
     20 C          63.1861   83.2357   13.0424 C.ar    1  UNL1        0.1189
     21 N          63.0084   81.8554   12.4826 N.ar    1  UNL1       -0.2826
     22 C          62.6481   80.6268   13.2640 C.ar    1  UNL1        0.1826
     23 N          62.5768   79.4735   12.3076 N.ar    1  UNL1       -0.2280
     24 C          62.8931   79.9894   10.9350 C.ar    1  UNL1        0.0786
     25 C          62.9352   79.1759    9.6754 C.3     1  UNL1        0.0538
     26 C          63.1598   81.4615   11.0432 C.ar    1  UNL1        0.0963
     27 C          62.3478   85.4173    9.8504 C.3     1  UNL1        0.2543
     28 O          62.3706   84.2522   10.7948 O.3     1  UNL1       -0.4551
     29 C          64.2524   91.5173   16.4007 C.3     1  UNL1        0.0499
     30 C          63.6619   92.8037   16.8973 C.3     1  UNL1        0.0040
     31 C          65.1506   92.6216   16.8737 C.3     1  UNL1        0.0040
@<TRIPOS>BOND
     1    27    28    1
     2    28    15    1
     3    15    16   ar
     4    16    17   ar
     5    17     1    1
     6     1     2    2
     7     2     3    1
     8     3     4    1
     9     4    29    1
    10    29    30    1
    11    30    31    1
    12     4     5    1
    13     5     8    1
    14     8     9   ar
    15     9    10   ar
    16    10    11   ar
    17    11    12    1
    18    11    13   ar
    19    13    14   ar
    20     5     6    1
    21    17    18   ar
    22    18    19   ar
    23    19    20   ar
    24    20    21    1
    25    21    22   ar
    26    22    23   ar
    27    23    24   ar
    28    24    25    1
    29    24    26   ar
    30    20    15   ar
    31    26    21   ar
    32     6     1    1
    33    31    29    1
    34    14     8   ar
    35     6     7    1
@<TRIPOS>MOLECULE
*****
 31 35 0 0 0
SMALL
GASTEIGER

@<TRIPOS>ATOM
      1 C          64.2304   89.4502   12.7041 C.2     1  UNL1        0.3845
      2 N          63.5615   90.2186   11.6031 N.2     1  UNL1        0.1565
      3 O          63.9724   91.6329   11.3187 O.2     1  UNL1       -0.2793
      4 C          65.0521   92.2789   12.1354 C.3     1  UNL1        0.2703
      5 C          65.7209   91.5106   13.2365 C.3     1  UNL1        0.2250
      6 N          65.3100   90.0962   13.5208 N.pl3   1  UNL1       -0.2108
      7 H          65.7490   89.5919   14.2434 H       1  UNL1        0.2927
      8 C          66.8006   92.1565   14.0531 C.ar    1  UNL1        0.0236
      9 C          66.4439   92.9466   15.2772 C.ar    1  UNL1        0.0005
     10 C          67.5236   93.5926   16.0940 C.ar    1  UNL1        0.0112
     11 C          68.9600   93.4484   15.6866 C.ar    1  UNL1        0.0577
     12 CL         70.0396   94.0943   16.5033 Cl      1  UNL1       -0.0822
     13 C          69.3167   92.6583   14.4624 C.ar    1  UNL1        0.0112
     14 C          68.2370   92.0123   13.6457 C.ar    1  UNL1        0.0005
     15 C          62.5490   85.8789   12.2930 C.ar    1  UNL1        0.2418
     16 N          62.9599   87.2932   12.0088 N.ar    1  UNL1       -0.2028
     17 C          63.8195   88.0359   12.9884 C.ar    1  UNL1        0.1702
     18 C          64.2681   87.3642   14.2524 C.ar    1  UNL1        0.0285
     19 C          63.8572   85.9499   14.5366 C.ar    1  UNL1        0.0241
     20 C          62.9976   85.2073   13.5570 C.ar    1  UNL1        0.1189
     21 N          62.5867   83.7929   13.8413 N.ar    1  UNL1       -0.2826
     22 C          61.9007   83.3068   15.0835 C.ar    1  UNL1        0.1826
     23 N          61.6797   81.8298   14.9432 N.ar    1  UNL1       -0.2280
     24 C          62.2292   81.4030   13.6143 C.ar    1  UNL1        0.0786
     25 C          62.2198   80.0080   13.0632 C.3     1  UNL1        0.0538
     26 C          62.7898   82.6163   12.9333 C.ar    1  UNL1        0.0963
     27 C          61.2024   85.8229   10.0719 C.3     1  UNL1        0.2543
     28 O          61.6895   85.1363   11.3134 O.3     1  UNL1       -0.4551
     29 C          65.4630   93.6932   11.8511 C.3     1  UNL1        0.0499
     30 C          65.4988   94.8749   10.9278 C.3     1  UNL1        0.0040
     31 C          66.1387   94.9612   12.2817 C.3     1  UNL1        0.0040
@<TRIPOS>BOND
     1    27    28    1
     2    28    15    1
     3    15    16   ar
     4    16    17   ar
     5    17     1    1
     6     1     2    2
     7     2     3    1
     8     3     4    1
     9     4    29    1
    10    29    30    1
    11    30    31    1
    12     4     5    1
    13     5     8    1
    14     8     9   ar
    15     9    10   ar
    16    10    11   ar
    17    11    12    1
    18    11    13   ar
    19    13    14   ar
    20     5     6    1
    21    17    18   ar
    22    18    19   ar
    23    19    20   ar
    24    20    21    1
    25    21    22   ar
    26    22    23   ar
    27    23    24   ar
    28    24    25    1
    29    24    26   ar
    30    20    15   ar
    31    26    21   ar
    32     6     1    1
    33    31    29    1
    34    14     8   ar
    35     6     7    1
@<TRIPOS>MOLECULE
*****
 31 35 0 0 0
SMALL
GASTEIGER

@<TRIPOS>ATOM
      1 C          63.0354   89.3301   11.5029 C.2     1  UNL1        0.3845
      2 N          61.9500   90.0080   10.7203 N.2     1  UNL1        0.1565
      3 O          61.0489   89.2009    9.8334 O.2     1  UNL1       -0.2793
      4 C          61.2332   87.7159    9.7291 C.3     1  UNL1        0.2703
      5 C          62.3186   87.0380   10.5116 C.3     1  UNL1        0.2250
      6 N          63.2197   87.8452   11.3986 N.pl3   1  UNL1       -0.2108
      7 H          63.9321   87.4003   11.9122 H       1  UNL1        0.2927
      8 C          62.5029   85.5531   10.4073 C.ar    1  UNL1        0.0236
      9 C          62.1128   84.6666   11.5527 C.ar    1  UNL1        0.0005
     10 C          62.2971   83.1816   11.4484 C.ar    1  UNL1        0.0112
     11 C          62.8715   82.5831   10.1987 C.ar    1  UNL1        0.0577
     12 CL         63.0558   81.0981   10.0943 Cl      1  UNL1       -0.0822
     13 C          63.2616   83.4696    9.0532 C.ar    1  UNL1        0.0112
     14 C          63.0773   84.9546    9.1575 C.ar    1  UNL1        0.0005
     15 C          65.3347   92.2842   12.8208 C.ar    1  UNL1        0.2418
     16 N          64.4336   91.4770   11.9339 N.ar    1  UNL1       -0.2028
     17 C          63.9365   90.1372   12.3899 C.ar    1  UNL1        0.1702
     18 C          64.3404   89.6046   13.7326 C.ar    1  UNL1        0.0285
     19 C          65.2415   90.4118   14.6195 C.ar    1  UNL1        0.0241
     20 C          65.7386   91.7515   14.1636 C.ar    1  UNL1        0.1189
     21 N          66.6397   92.5587   15.0505 N.ar    1  UNL1       -0.2826
     22 C          66.3710   92.9269   16.4796 C.ar    1  UNL1        0.1826
     23 N          67.5330   93.7351   16.9763 N.ar    1  UNL1       -0.2280
     24 C          68.5198   93.8664   15.8542 C.ar    1  UNL1        0.0786
     25 C          69.8288   94.5965   15.9122 C.3     1  UNL1        0.0538
     26 C          67.9677   93.1393   14.6641 C.ar    1  UNL1        0.0963
     27 C          65.8807   93.9473   10.9010 C.3     1  UNL1        0.2543
     28 O          65.8318   93.6239   12.3649 O.3     1  UNL1       -0.4551
     29 C          60.3321   86.9088    8.8422 C.3     1  UNL1        0.0499
     30 C          58.9583   86.5890    8.3320 C.3     1  UNL1        0.0040
     31 C          60.1452   85.8308    7.8161 C.3     1  UNL1        0.0040
@<TRIPOS>BOND
     1    27    28    1
     2    28    15    1
     3    15    16   ar
     4    16    17   ar
     5    17     1    1
     6     1     2    2
     7     2     3    1
     8     3     4    1
     9     4    29    1
    10    29    30    1
    11    30    31    1
    12     4     5    1
    13     5     8    1
    14     8     9   ar
    15     9    10   ar
    16    10    11   ar
    17    11    12    1
    18    11    13   ar
    19    13    14   ar
    20     5     6    1
    21    17    18   ar
    22    18    19   ar
    23    19    20   ar
    24    20    21    1
    25    21    22   ar
    26    22    23   ar
    27    23    24   ar
    28    24    25    1
    29    24    26   ar
    30    20    15   ar
    31    26    21   ar
    32     6     1    1
    33    31    29    1
    34    14     8   ar
    35     6     7    1
@<TRIPOS>MOLECULE
*****
 31 35 0 0 0
SMALL
GASTEIGER

@<TRIPOS>ATOM
      1 C          63.6726   87.2368   14.4524 C.2     1  UNL1        0.3845
      2 N          63.3941   87.4819   15.9058 N.2     1  UNL1        0.1565
      3 O          63.5855   88.8519   16.4856 O.2     1  UNL1       -0.2793
      4 C          64.0555   89.9771   15.6119 C.3     1  UNL1        0.2703
      5 C          64.3341   89.7321   14.1585 C.3     1  UNL1        0.2250
      6 N          64.1426   88.3619   13.5787 N.pl3   1  UNL1       -0.2108
      7 H          64.3253   88.2010   12.6248 H       1  UNL1        0.2927
      8 C          64.8040   90.8571   13.2848 C.ar    1  UNL1        0.0236
      9 C          66.0856   91.5686   13.6030 C.ar    1  UNL1        0.0005
     10 C          66.5557   92.6938   12.7293 C.ar    1  UNL1        0.0112
     11 C          65.7441   93.1073   11.5375 C.ar    1  UNL1        0.0577
     12 CL         66.2141   94.2323   10.6638 Cl      1  UNL1       -0.0822
     13 C          64.4625   92.3957   11.2194 C.ar    1  UNL1        0.0112
     14 C          63.9925   91.2706   12.0930 C.ar    1  UNL1        0.0005
     15 C          63.5779   83.2828   14.1259 C.ar    1  UNL1        0.2418
     16 N          63.7694   84.6529   14.7055 N.ar    1  UNL1       -0.2028
     17 C          63.4811   85.8667   13.8727 C.ar    1  UNL1        0.1702
     18 C          63.0013   85.7103   12.4601 C.ar    1  UNL1        0.0285
     19 C          62.8098   84.3402   11.8805 C.ar    1  UNL1        0.0241
     20 C          63.0981   83.1264   12.7133 C.ar    1  UNL1        0.1189
     21 N          62.9066   81.7562   12.1336 N.ar    1  UNL1       -0.2826
     22 C          62.3628   80.5605   12.8578 C.ar    1  UNL1        0.1826
     23 N          62.3454   79.4066   11.8997 N.ar    1  UNL1       -0.2280
     24 C          62.8785   79.8891   10.5832 C.ar    1  UNL1        0.0786
     25 C          63.0369   79.0643    9.3404 C.3     1  UNL1        0.0538
     26 C          63.2253   81.3413   10.7278 C.ar    1  UNL1        0.0963
     27 C          64.8654   81.0551   14.4861 C.3     1  UNL1        0.2543
     28 O          63.8662   82.0690   14.9587 O.3     1  UNL1       -0.4551
     29 C          64.2470   91.3472   16.1916 C.3     1  UNL1        0.0499
     30 C          65.1564   92.4367   16.6776 C.3     1  UNL1        0.0040
     31 C          63.6694   92.6308   16.7099 C.3     1  UNL1        0.0040
@<TRIPOS>BOND
     1    27    28    1
     2    28    15    1
     3    15    16   ar
     4    16    17   ar
     5    17     1    1
     6     1     2    2
     7     2     3    1
     8     3     4    1
     9     4    29    1
    10    29    30    1
    11    30    31    1
    12     4     5    1
    13     5     8    1
    14     8     9   ar
    15     9    10   ar
    16    10    11   ar
    17    11    12    1
    18    11    13   ar
    19    13    14   ar
    20     5     6    1
    21    17    18   ar
    22    18    19   ar
    23    19    20   ar
    24    20    21    1
    25    21    22   ar
    26    22    23   ar
    27    23    24   ar
    28    24    25    1
    29    24    26   ar
    30    20    15   ar
    31    26    21   ar
    32     6     1    1
    33    31    29    1
    34    14     8   ar
    35     6     7    1
