@<TRIPOS>MOLECULE
*****
 25 28 0 0 0
SMALL
GASTEIGER

@<TRIPOS>ATOM
      1 C          63.0348   85.6550   12.6618 C.ar    1  UNL1       -0.0003
      2 C          63.7448   86.4020   13.7517 C.ar    1  UNL1       -0.0003
      3 C          63.8946   87.8920   13.6650 C.ar    1  UNL1       -0.0043
      4 C          63.3343   88.6349   12.4885 C.ar    1  UNL1       -0.0224
      5 C          62.6242   87.8878   11.3986 C.ar    1  UNL1       -0.0258
      6 C          62.4745   86.3979   11.4853 C.ar    1  UNL1       -0.0046
      7 C          62.0639   88.6307   10.2221 C.3     1  UNL1        0.0261
      8 C          62.2136   90.1207   10.1354 C.3     1  UNL1        0.0053
      9 C          62.9237   90.8678   11.2253 C.3     1  UNL1        0.0091
     10 C          63.4840   90.1249   12.4018 C.3     1  UNL1        0.0444
     11 O          62.4359   79.6949   13.0084 O.3     1  UNL1       -0.5034
     12 C          62.5856   81.1849   12.9218 C.ar    1  UNL1        0.1610
     13 C          62.4134   82.0287   14.1499 C.ar    1  UNL1        0.0390
     14 C          62.5631   83.5187   14.0633 C.ar    1  UNL1        0.0033
     15 C          62.8851   84.1649   12.7485 C.ar    1  UNL1        0.0024
     16 C          63.0573   83.3212   11.5203 C.ar    1  UNL1        0.0328
     17 C          62.9076   81.8312   11.6069 C.ar    1  UNL1        0.1735
     18 F          63.0799   80.9875   10.3787 F       1  UNL1       -0.2010
     19 H          62.2348   79.2913   13.8297 H       1  UNL1        0.2923
     20 C          64.1940   90.8720   13.4916 C.ar    1  UNL1       -0.0154
     21 C          63.7042   90.7795   14.9064 C.ar    1  UNL1        0.0167
     22 C          64.4143   91.5266   15.9962 C.ar    1  UNL1        0.0986
     23 N          65.6141   92.3662   15.6713 N.ar    1  UNL1       -0.2423
     24 C          66.1039   92.4586   14.2565 C.ar    1  UNL1        0.0986
     25 C          65.3939   91.7116   13.1667 C.ar    1  UNL1        0.0167
@<TRIPOS>BOND
     1    11    12    1
     2    12    13   ar
     3    13    14   ar
     4    14    15   ar
     5    15     1    1
     6     1     2   ar
     7     2     3   ar
     8     3     4   ar
     9     4     5   ar
    10     5     6   ar
    11     5     7    1
    12     7     8    1
    13     8     9    1
    14     9    10    1
    15    10    20    1
    16    20    21   ar
    17    21    22   ar
    18    22    23   ar
    19    23    24   ar
    20    24    25   ar
    21    15    16   ar
    22    16    17   ar
    23    17    18    1
    24    17    12   ar
    25     6     1   ar
    26    25    20   ar
    27    10     4    1
    28    11    19    1
@<TRIPOS>MOLECULE
*****
 25 28 0 0 0
SMALL
GASTEIGER

@<TRIPOS>ATOM
      1 C          62.4560   89.9339   10.4122 C.ar    1  UNL1       -0.0003
      2 C          63.0658   91.0484    9.6149 C.ar    1  UNL1       -0.0003
      3 C          64.1082   91.9310   10.2349 C.ar    1  UNL1       -0.0043
      4 C          64.5407   91.6991   11.6524 C.ar    1  UNL1       -0.0224
      5 C          63.9309   90.5845   12.4498 C.ar    1  UNL1       -0.0258
      6 C          62.8885   89.7019   11.8297 C.ar    1  UNL1       -0.0046
      7 C          64.3634   90.3526   13.8672 C.3     1  UNL1        0.0261
      8 C          65.4057   91.2352   14.4873 C.3     1  UNL1        0.0053
      9 C          66.0156   92.3498   13.6899 C.3     1  UNL1        0.0091
     10 C          65.5831   92.5817   12.2724 C.3     1  UNL1        0.0444
     11 O          58.2865   86.4034    7.9320 O.3     1  UNL1       -0.5034
     12 C          59.3289   87.2859    8.5521 C.ar    1  UNL1        0.1610
     13 C          60.1699   86.7727    9.6832 C.ar    1  UNL1        0.0390
     14 C          61.2123   87.6554   10.3032 C.ar    1  UNL1        0.0033
     15 C          61.4136   89.0512    9.7922 C.ar    1  UNL1        0.0024
     16 C          60.5726   89.5644    8.6611 C.ar    1  UNL1        0.0328
     17 C          59.5303   88.6818    8.0411 C.ar    1  UNL1        0.1735
     18 F          58.6893   89.1950    6.9100 F       1  UNL1       -0.2010
     19 H          58.1607   85.5314    8.2512 H       1  UNL1        0.2923
     20 C          66.1929   93.6963   11.4751 C.ar    1  UNL1       -0.0154
     21 C          67.0451   93.3848   10.2806 C.ar    1  UNL1        0.0167
     22 C          67.6550   94.4994    9.4832 C.ar    1  UNL1        0.0986
     23 N          67.4126   95.9254    9.8803 N.ar    1  UNL1       -0.2423
     24 C          66.5604   96.2369   11.0747 C.ar    1  UNL1        0.0986
     25 C          65.9505   95.1224   11.8721 C.ar    1  UNL1        0.0167
@<TRIPOS>BOND
     1    11    12    1
     2    12    13   ar
     3    13    14   ar
     4    14    15   ar
     5    15     1    1
     6     1     2   ar
     7     2     3   ar
     8     3     4   ar
     9     4     5   ar
    10     5     6   ar
    11     5     7    1
    12     7     8    1
    13     8     9    1
    14     9    10    1
    15    10    20    1
    16    20    21   ar
    17    21    22   ar
    18    22    23   ar
    19    23    24   ar
    20    24    25   ar
    21    15    16   ar
    22    16    17   ar
    23    17    18    1
    24    17    12   ar
    25     6     1   ar
    26    25    20   ar
    27    10     4    1
    28    11    19    1
@<TRIPOS>MOLECULE
*****
 25 28 0 0 0
SMALL
GASTEIGER

@<TRIPOS>ATOM
      1 C          62.8955   90.2438   10.7081 C.ar    1  UNL1       -0.0003
      2 C          63.4010   91.3552    9.8367 C.ar    1  UNL1       -0.0003
      3 C          64.3926   92.3413   10.3789 C.ar    1  UNL1       -0.0043
      4 C          64.8788   92.2161   11.7924 C.ar    1  UNL1       -0.0224
      5 C          64.3733   91.1047   12.6637 C.ar    1  UNL1       -0.0258
      6 C          63.3816   90.1186   12.1216 C.ar    1  UNL1       -0.0046
      7 C          64.8594   90.9795   14.0772 C.3     1  UNL1        0.0261
      8 C          65.8511   91.9657   14.6194 C.3     1  UNL1        0.0053
      9 C          66.3567   93.0772   13.7481 C.3     1  UNL1        0.0091
     10 C          65.8705   93.2024   12.3346 C.3     1  UNL1        0.0444
     11 O          58.9287   86.2988    8.5395 O.3     1  UNL1       -0.5034
     12 C          59.9203   87.2850    9.0816 C.ar    1  UNL1        0.1610
     13 C          59.8175   88.7342    8.7085 C.ar    1  UNL1        0.0390
     14 C          60.8092   89.7205    9.2507 C.ar    1  UNL1        0.0033
     15 C          61.9037   89.2575   10.1659 C.ar    1  UNL1        0.0024
     16 C          62.0066   87.8083   10.5390 C.ar    1  UNL1        0.0328
     17 C          61.0149   86.8221    9.9969 C.ar    1  UNL1        0.1735
     18 F          61.1177   85.3729   10.3701 F       1  UNL1       -0.2010
     19 H          58.2450   86.5880    7.9678 H       1  UNL1        0.2923
     20 C          66.3760   94.3137   11.4633 C.ar    1  UNL1       -0.0154
     21 C          66.0874   95.7407   11.8247 C.ar    1  UNL1        0.0167
     22 C          66.5930   96.8521   10.9533 C.ar    1  UNL1        0.0986
     23 N          67.3871   96.5365    9.7205 N.ar    1  UNL1       -0.2423
     24 C          67.6758   95.1096    9.3591 C.ar    1  UNL1        0.0986
     25 C          67.1702   93.9982   10.2304 C.ar    1  UNL1        0.0167
@<TRIPOS>BOND
     1    11    12    1
     2    12    13   ar
     3    13    14   ar
     4    14    15   ar
     5    15     1    1
     6     1     2   ar
     7     2     3   ar
     8     3     4   ar
     9     4     5   ar
    10     5     6   ar
    11     5     7    1
    12     7     8    1
    13     8     9    1
    14     9    10    1
    15    10    20    1
    16    20    21   ar
    17    21    22   ar
    18    22    23   ar
    19    23    24   ar
    20    24    25   ar
    21    15    16   ar
    22    16    17   ar
    23    17    18    1
    24    17    12   ar
    25     6     1   ar
    26    25    20   ar
    27    10     4    1
    28    11    19    1
@<TRIPOS>MOLECULE
*****
 25 28 0 0 0
SMALL
GASTEIGER

@<TRIPOS>ATOM
      1 C          62.6091   86.2902   10.7763 C.ar    1  UNL1       -0.0003
      2 C          62.7503   87.7499   11.0911 C.ar    1  UNL1       -0.0003
      3 C          63.1989   88.1829   12.4554 C.ar    1  UNL1       -0.0043
      4 C          63.5062   87.1562   13.5048 C.ar    1  UNL1       -0.0224
      5 C          63.3649   85.6964   13.1900 C.ar    1  UNL1       -0.0258
      6 C          62.9163   85.2634   11.8258 C.ar    1  UNL1       -0.0046
      7 C          63.6722   84.6697   14.2395 C.3     1  UNL1        0.0261
      8 C          64.1208   85.1026   15.6037 C.3     1  UNL1        0.0053
      9 C          64.2621   86.5624   15.9186 C.3     1  UNL1        0.0091
     10 C          63.9548   87.5892   14.8692 C.3     1  UNL1        0.0444
     11 O          60.8147   84.5581    5.3192 O.3     1  UNL1       -0.5034
     12 C          61.2633   84.9911    6.6834 C.ar    1  UNL1        0.1610
     13 C          62.6359   84.6323    7.1706 C.ar    1  UNL1        0.0390
     14 C          63.0844   85.0654    8.5349 C.ar    1  UNL1        0.0033
     15 C          62.1605   85.8572    9.4120 C.ar    1  UNL1        0.0024
     16 C          60.7879   86.2159    8.9248 C.ar    1  UNL1        0.0328
     17 C          60.3393   85.7829    7.5606 C.ar    1  UNL1        0.1735
     18 F          58.9667   86.1417    7.0734 F       1  UNL1       -0.2010
     19 H          61.3918   84.0635    4.7712 H       1  UNL1        0.2923
     20 C          64.0961   89.0489   15.1840 C.ar    1  UNL1       -0.0154
     21 C          63.3014   89.6553   16.3024 C.ar    1  UNL1        0.0167
     22 C          63.4427   91.1152   16.6172 C.ar    1  UNL1        0.0986
     23 N          64.3787   91.9685   15.8136 N.ar    1  UNL1       -0.2423
     24 C          65.1733   91.3621   14.6952 C.ar    1  UNL1        0.0986
     25 C          65.0320   89.9024   14.3804 C.ar    1  UNL1        0.0167
@<TRIPOS>BOND
     1    11    12    1
     2    12    13   ar
     3    13    14   ar
     4    14    15   ar
     5    15     1    1
     6     1     2   ar
     7     2     3   ar
     8     3     4   ar
     9     4     5   ar
    10     5     6   ar
    11     5     7    1
    12     7     8    1
    13     8     9    1
    14     9    10    1
    15    10    20    1
    16    20    21   ar
    17    21    22   ar
    18    22    23   ar
    19    23    24   ar
    20    24    25   ar
    21    15    16   ar
    22    16    17   ar
    23    17    18    1
    24    17    12   ar
    25     6     1   ar
    26    25    20   ar
    27    10     4    1
    28    11    19    1
