@<TRIPOS>MOLECULE
*****
 32 36 0 0 0
SMALL
GASTEIGER

@<TRIPOS>ATOM
      1 C          61.3440   88.4788   11.1155 C.3     1  UNL1        0.1096
      2 C          60.3382   89.1040   10.1948 C.3     1  UNL1        0.1622
      3 O          59.7517   88.3036    9.0700 O.3     1  UNL1       -0.3502
      4 C          60.1709   86.8780    8.8657 C.3     1  UNL1        0.1637
      5 C          61.1766   86.2527    9.7863 C.3     1  UNL1        0.1257
      6 N          61.7632   87.0531   10.9112 N.am    1  UNL1       -0.2723
      7 C          62.7689   86.4279   11.8318 C.2     1  UNL1        0.2506
      8 O          63.3555   87.2283   12.9566 O.2     1  UNL1       -0.2699
      9 C          63.1882   85.0022   11.6275 C.ar    1  UNL1        0.0729
     10 C          63.3676   84.4648   10.2386 C.ar    1  UNL1        0.0061
     11 C          63.7868   83.0392   10.0343 C.ar    1  UNL1        0.0002
     12 C          64.0266   82.1509   11.2189 C.ar    1  UNL1        0.0016
     13 C          63.8472   82.6882   12.6078 C.ar    1  UNL1        0.0211
     14 C          63.4280   84.1139   12.8121 C.ar    1  UNL1        0.1072
     15 N          63.2486   84.6512   14.2011 N.ar    1  UNL1       -0.1477
     16 N          61.9776   84.6297   14.9974 N.ar    1  UNL1       -0.1447
     17 C          62.2521   85.2695   16.3260 C.ar    1  UNL1        0.1446
     18 C          63.6928   85.6865   16.3508 C.ar    1  UNL1        0.1446
     19 N          64.3087   85.3043   15.0375 N.ar    1  UNL1       -0.1447
     20 C          61.9305   89.2792   12.2403 C.3     1  UNL1        0.0487
     21 C          66.1865   93.3573   11.1199 C.3     1  UNL1        0.0311
     22 C          65.1225   92.3378   11.4000 C.ar    1  UNL1       -0.0199
     23 C          64.1426   91.9624   10.3281 C.ar    1  UNL1       -0.0045
     24 C          63.0786   90.9429   10.6082 C.ar    1  UNL1       -0.0045
     25 C          62.9945   90.2987   11.9602 C.ar    1  UNL1       -0.0204
     26 C          63.9743   90.6741   13.0321 C.ar    1  UNL1       -0.0025
     27 C          65.0383   91.6936   12.7520 C.ar    1  UNL1        0.0196
     28 C          66.0182   92.0689   13.8240 C.ar    1  UNL1        0.1104
     29 N          65.6983   92.7992   15.0945 N.ar    1  UNL1       -0.2368
     30 C          66.9724   92.9614   15.8693 C.ar    1  UNL1        0.1064
     31 C          68.0798   92.3315   15.0776 C.ar    1  UNL1        0.0575
     32 S          67.4901   91.7799   13.8135 S.2     1  UNL1       -0.0659
@<TRIPOS>BOND
     1    21    22    1
     2    22    23   ar
     3    23    24   ar
     4    24    25   ar
     5    25    20    1
     6     1    20    1
     7     1     2    1
     8     2     3    1
     9     3     4    1
    10     4     5    1
    11     5     6    1
    12     6     7   am
    13     7     8    2
    14     7     9    1
    15     9    10   ar
    16    10    11   ar
    17    11    12   ar
    18    12    13   ar
    19    13    14   ar
    20    14    15    1
    21    15    16   ar
    22    16    17   ar
    23    17    18   ar
    24    18    19   ar
    25    25    26   ar
    26    26    27   ar
    27    27    28    1
    28    28    29   ar
    29    29    30   ar
    30    30    31   ar
    31    31    32   ar
    32    27    22   ar
    33    32    28   ar
    34     6     1    1
    35    14     9   ar
    36    19    15   ar
@<TRIPOS>MOLECULE
*****
 32 36 0 0 0
SMALL
GASTEIGER

@<TRIPOS>ATOM
      1 C          61.8392   89.5216   11.8108 C.3     1  UNL1        0.1096
      2 C          61.0776   90.5818   11.0717 C.3     1  UNL1        0.1622
      3 O          60.5257   90.2949    9.7068 O.3     1  UNL1       -0.3502
      4 C          60.7353   88.9479    9.0809 C.3     1  UNL1        0.1637
      5 C          61.4968   87.8878    9.8200 C.3     1  UNL1        0.1257
      6 N          62.0487   88.1746   11.1850 N.am    1  UNL1       -0.2723
      7 C          62.8102   87.1145   11.9241 C.2     1  UNL1        0.2506
      8 O          63.3621   87.4014   13.2890 O.2     1  UNL1       -0.2699
      9 C          63.0198   85.7675   11.2982 C.ar    1  UNL1        0.0729
     10 C          63.0169   85.6257    9.8050 C.ar    1  UNL1        0.0061
     11 C          63.2265   84.2787    9.1791 C.ar    1  UNL1        0.0002
     12 C          63.4389   83.0735   10.0465 C.ar    1  UNL1        0.0016
     13 C          63.4417   83.2154   11.5398 C.ar    1  UNL1        0.0211
     14 C          63.2322   84.5624   12.1656 C.ar    1  UNL1        0.1072
     15 N          63.2350   84.7042   13.6590 N.ar    1  UNL1       -0.1477
     16 N          64.4347   84.9801   14.5161 N.ar    1  UNL1       -0.1447
     17 C          63.9799   85.0414   15.9442 C.ar    1  UNL1        0.1446
     18 C          62.4991   84.8034   15.9696 C.ar    1  UNL1        0.1446
     19 N          62.0387   84.5949   14.5573 N.ar    1  UNL1       -0.1447
     20 C          62.3911   89.8085   13.1757 C.3     1  UNL1        0.0487
     21 C          67.7423   92.4606   13.7514 C.3     1  UNL1        0.0311
     22 C          66.4045   91.7976   13.6075 C.ar    1  UNL1       -0.0199
     23 C          65.8665   90.9451   14.7183 C.ar    1  UNL1       -0.0045
     24 C          64.5287   90.2821   14.5744 C.ar    1  UNL1       -0.0045
     25 C          63.7289   90.4715   13.3197 C.ar    1  UNL1       -0.0204
     26 C          64.2668   91.3240   12.2089 C.ar    1  UNL1       -0.0025
     27 C          65.6046   91.9870   12.3528 C.ar    1  UNL1        0.0196
     28 C          66.1426   92.8395   11.2419 C.ar    1  UNL1        0.1104
     29 N          67.1448   92.4140   10.2102 N.ar    1  UNL1       -0.2368
     30 C          67.3943   93.5787    9.2984 C.ar    1  UNL1        0.1064
     31 C          66.5463   94.7240    9.7666 C.ar    1  UNL1        0.0575
     32 S          65.7727   94.2671   10.9678 S.2     1  UNL1       -0.0659
@<TRIPOS>BOND
     1    21    22    1
     2    22    23   ar
     3    23    24   ar
     4    24    25   ar
     5    25    20    1
     6     1    20    1
     7     1     2    1
     8     2     3    1
     9     3     4    1
    10     4     5    1
    11     5     6    1
    12     6     7   am
    13     7     8    2
    14     7     9    1
    15     9    10   ar
    16    10    11   ar
    17    11    12   ar
    18    12    13   ar
    19    13    14   ar
    20    14    15    1
    21    15    16   ar
    22    16    17   ar
    23    17    18   ar
    24    18    19   ar
    25    25    26   ar
    26    26    27   ar
    27    27    28    1
    28    28    29   ar
    29    29    30   ar
    30    30    31   ar
    31    31    32   ar
    32    27    22   ar
    33    32    28   ar
    34     6     1    1
    35    14     9   ar
    36    19    15   ar
@<TRIPOS>MOLECULE
*****
 32 36 0 0 0
SMALL
GASTEIGER

@<TRIPOS>ATOM
      1 C          63.2296   88.6738   15.4382 C.3     1  UNL1        0.1096
      2 C          63.0845   89.0119   16.8924 C.3     1  UNL1        0.1622
      3 O          63.0708   87.9182   17.9189 O.3     1  UNL1       -0.3502
      4 C          63.2022   86.4865   17.4912 C.3     1  UNL1        0.1637
      5 C          63.3473   86.1484   16.0370 C.3     1  UNL1        0.1257
      6 N          63.3610   87.2421   15.0105 N.am    1  UNL1       -0.2723
      7 C          63.5061   86.9041   13.5563 C.2     1  UNL1        0.2506
      8 O          63.5197   87.9977   12.5299 O.2     1  UNL1       -0.2699
      9 C          63.6375   85.4724   13.1286 C.ar    1  UNL1        0.0729
     10 C          64.4695   84.5215   13.9369 C.ar    1  UNL1        0.0061
     11 C          64.6009   83.0898   13.5092 C.ar    1  UNL1        0.0002
     12 C          63.9003   82.6089   12.2732 C.ar    1  UNL1        0.0016
     13 C          63.0682   83.5598   11.4649 C.ar    1  UNL1        0.0211
     14 C          62.9368   84.9915   11.8926 C.ar    1  UNL1        0.1072
     15 N          62.1047   85.9424   11.0842 N.ar    1  UNL1       -0.1477
     16 N          62.3399   86.3217    9.6521 N.ar    1  UNL1       -0.1447
     17 C          61.2719   87.2946    9.2487 C.ar    1  UNL1        0.1446
     18 C          60.3766   87.5167   10.4316 C.ar    1  UNL1        0.1446
     19 N          60.8913   86.6810   11.5659 N.ar    1  UNL1       -0.1447
     20 C          63.2433   89.7675   14.4117 C.3     1  UNL1        0.0487
     21 C          67.5090   93.9837   14.5768 C.3     1  UNL1        0.0311
     22 C          66.4426   92.9297   14.5355 C.ar    1  UNL1       -0.0199
     23 C          65.8773   92.3842   15.8134 C.ar    1  UNL1       -0.0045
     24 C          64.8108   91.3302   15.7721 C.ar    1  UNL1       -0.0045
     25 C          64.3097   90.8216   14.4530 C.ar    1  UNL1       -0.0204
     26 C          64.8750   91.3670   13.1752 C.ar    1  UNL1       -0.0025
     27 C          65.9414   92.4210   13.2164 C.ar    1  UNL1        0.0196
     28 C          66.5067   92.9664   11.9385 C.ar    1  UNL1        0.1104
     29 N          67.6803   92.4125   11.1863 N.ar    1  UNL1       -0.2368
     30 C          67.8965   93.2653    9.9714 C.ar    1  UNL1        0.1064
     31 C          66.8565   94.3463    9.9727 C.ar    1  UNL1        0.0575
     32 S          65.9976   94.1615   11.1884 S.2     1  UNL1       -0.0659
@<TRIPOS>BOND
     1    21    22    1
     2    22    23   ar
     3    23    24   ar
     4    24    25   ar
     5    25    20    1
     6     1    20    1
     7     1     2    1
     8     2     3    1
     9     3     4    1
    10     4     5    1
    11     5     6    1
    12     6     7   am
    13     7     8    2
    14     7     9    1
    15     9    10   ar
    16    10    11   ar
    17    11    12   ar
    18    12    13   ar
    19    13    14   ar
    20    14    15    1
    21    15    16   ar
    22    16    17   ar
    23    17    18   ar
    24    18    19   ar
    25    25    26   ar
    26    26    27   ar
    27    27    28    1
    28    28    29   ar
    29    29    30   ar
    30    30    31   ar
    31    31    32   ar
    32    27    22   ar
    33    32    28   ar
    34     6     1    1
    35    14     9   ar
    36    19    15   ar
@<TRIPOS>MOLECULE
*****
 32 36 0 0 0
SMALL
GASTEIGER

@<TRIPOS>ATOM
      1 C          62.2812   86.3256   10.1327 C.3     1  UNL1        0.1096
      2 C          62.4822   86.6009    8.6719 C.3     1  UNL1        0.1622
      3 O          63.0109   85.5240    7.7715 O.3     1  UNL1       -0.3502
      4 C          63.3386   84.1717    8.3319 C.3     1  UNL1        0.1637
      5 C          63.1375   83.8963    9.7926 C.3     1  UNL1        0.1257
      6 N          62.6088   84.9733   10.6930 N.am    1  UNL1       -0.2723
      7 C          62.4078   84.6979   12.1537 C.2     1  UNL1        0.2506
      8 O          61.8791   85.7748   13.0541 O.2     1  UNL1       -0.2699
      9 C          62.7355   83.3456   12.7141 C.ar    1  UNL1        0.0729
     10 C          62.5164   82.1163   11.8831 C.ar    1  UNL1        0.0061
     11 C          62.8440   80.7640   12.4434 C.ar    1  UNL1        0.0002
     12 C          63.3908   80.6411   13.8347 C.ar    1  UNL1        0.0016
     13 C          63.6099   81.8704   14.6658 C.ar    1  UNL1        0.0211
     14 C          63.2822   83.2227   14.1054 C.ar    1  UNL1        0.1072
     15 N          63.5013   84.4521   14.9365 N.ar    1  UNL1       -0.1477
     16 N          64.6299   85.4286   14.7858 N.ar    1  UNL1       -0.1447
     17 C          64.4565   86.5008   15.8203 C.ar    1  UNL1        0.1446
     18 C          63.2207   86.1869   16.6105 C.ar    1  UNL1        0.1446
     19 N          62.6304   84.9207   16.0643 N.ar    1  UNL1       -0.1447
     20 C          61.7525   87.4025   11.0331 C.3     1  UNL1        0.0487
     21 C          64.5181   92.7207   11.2939 C.3     1  UNL1        0.0311
     22 C          63.8267   91.3911   11.2287 C.ar    1  UNL1       -0.0199
     23 C          63.2243   90.9216    9.9378 C.ar    1  UNL1       -0.0045
     24 C          62.5329   89.5920    9.8726 C.ar    1  UNL1       -0.0045
     25 C          62.4439   88.7320   11.0983 C.ar    1  UNL1       -0.0204
     26 C          63.0464   89.2016   12.3892 C.ar    1  UNL1       -0.0025
     27 C          63.7378   90.5311   12.4544 C.ar    1  UNL1        0.0196
     28 C          64.3403   91.0006   13.7454 C.ar    1  UNL1        0.1104
     29 N          63.6073   91.2029   15.0384 N.ar    1  UNL1       -0.2368
     30 C          64.5955   91.6776   16.0621 C.ar    1  UNL1        0.1064
     31 C          65.9394   91.7687   15.4019 C.ar    1  UNL1        0.0575
     32 S          65.7816   91.3503   13.9701 S.2     1  UNL1       -0.0659
@<TRIPOS>BOND
     1    21    22    1
     2    22    23   ar
     3    23    24   ar
     4    24    25   ar
     5    25    20    1
     6     1    20    1
     7     1     2    1
     8     2     3    1
     9     3     4    1
    10     4     5    1
    11     5     6    1
    12     6     7   am
    13     7     8    2
    14     7     9    1
    15     9    10   ar
    16    10    11   ar
    17    11    12   ar
    18    12    13   ar
    19    13    14   ar
    20    14    15    1
    21    15    16   ar
    22    16    17   ar
    23    17    18   ar
    24    18    19   ar
    25    25    26   ar
    26    26    27   ar
    27    27    28    1
    28    28    29   ar
    29    29    30   ar
    30    30    31   ar
    31    31    32   ar
    32    27    22   ar
    33    32    28   ar
    34     6     1    1
    35    14     9   ar
    36    19    15   ar
