@<TRIPOS>MOLECULE
*****
 35 39 0 0 0
SMALL
GASTEIGER

@<TRIPOS>ATOM
      1 C          62.9656   89.7855   12.6565 C.ar    1  UNL1        0.0360
      2 S          63.5373   90.7397   11.6503 S.2     1  UNL1       -0.0718
      3 C          64.5195   91.6258   12.3575 C.ar    1  UNL1        0.0983
      4 C          64.5548   91.2194   13.8008 C.ar    1  UNL1        0.0830
      5 C          63.5944   90.0820   13.9857 C.ar    1  UNL1        0.0639
      6 C          65.4568   91.9374   14.7604 C.ar    1  UNL1        0.2663
      7 O          65.4921   91.5309   16.2038 O.2     1  UNL1       -0.2668
      8 N          66.3236   93.0619   14.2766 N.ar    1  UNL1       -0.2467
      9 C          67.2257   93.7799   15.2362 C.3     1  UNL1        0.1382
     10 C          66.2883   93.4684   12.8332 C.ar    1  UNL1        0.3342
     11 O          67.1550   94.5929   12.3492 O.2     1  UNL1       -0.2462
     12 N          65.3863   92.7504   11.8736 N.ar    1  UNL1       -0.2757
     13 C          63.3124   89.3666   15.2737 C.2     1  UNL1        0.2495
     14 O          62.6532   90.0949   16.4072 O.2     1  UNL1       -0.2699
     15 N          63.6897   87.9231   15.4280 N.am    1  UNL1       -0.2760
     16 C          63.5722   86.9076   16.5258 C.3     1  UNL1        0.0955
     17 C          64.2232   85.8815   15.6463 C.3     1  UNL1        0.0430
     18 C          64.3407   86.8970   14.5485 C.3     1  UNL1        0.0955
     19 C          61.9444   88.7218   12.3820 C.3     1  UNL1        0.1420
     20 C          60.6579   89.3327   10.1199 C.ar    1  UNL1        0.1982
     21 N          60.4766   88.6646    8.7893 N.ar    1  UNL1       -0.2138
     22 C          61.2191   87.3617    8.8197 C.ar    1  UNL1        0.0999
     23 C          61.3950   86.2824    7.7930 C.ar    1  UNL1        0.0207
     24 C          62.2111   85.0660    8.1158 C.ar    1  UNL1        0.0016
     25 C          62.8514   84.9288    9.4653 C.ar    1  UNL1        0.0016
     26 C          62.6755   86.0081   10.4920 C.ar    1  UNL1        0.0188
     27 C          61.8593   87.2245   10.1692 C.ar    1  UNL1        0.0802
     28 N          61.5125   88.4426   10.9728 N.ar    1  UNL1       -0.2950
     29 C          59.0474   90.7270   11.6073 C.3     1  UNL1        0.1108
     30 N          60.0851   90.6582   10.5264 N.pl3   1  UNL1       -0.3026
     31 H          60.3903   91.4829   10.0837 H       1  UNL1        0.1496
     32 C          65.3510   93.1569   10.4302 C.3     1  UNL1        0.1109
     33 C          66.6319   93.3688    9.6791 C.3     1  UNL1        0.0228
     34 C          66.8574   94.6463    8.9259 C.3     1  UNL1        0.0020
     35 C          67.6876   92.3031    9.6811 C.3     1  UNL1        0.0020
@<TRIPOS>BOND
     1    29    30    1
     2    30    20    1
     3    20    21   ar
     4    21    22   ar
     5    22    23   ar
     6    23    24   ar
     7    24    25   ar
     8    25    26   ar
     9    26    27   ar
    10    27    28   ar
    11    28    19    1
    12    19     1    1
    13     1     2   ar
    14     2     3   ar
    15     3     4   ar
    16     4     5   ar
    17     5    13    1
    18    13    14    2
    19    13    15   am
    20    15    16    1
    21    16    17    1
    22    17    18    1
    23     4     6   ar
    24     6     7    2
    25     6     8   ar
    26     8     9    1
    27     8    10   ar
    28    10    11    2
    29    10    12   ar
    30    12    32    1
    31    32    33    1
    32    33    34    1
    33    33    35    1
    34    28    20   ar
    35     5     1   ar
    36    18    15    1
    37    27    22   ar
    38    12     3   ar
    39    30    31    1
@<TRIPOS>MOLECULE
*****
 35 39 0 0 0
SMALL
GASTEIGER

@<TRIPOS>ATOM
      1 C          63.4330   88.4679   13.4002 C.ar    1  UNL1        0.0360
      2 S          64.5412   89.1603   14.1367 S.2     1  UNL1       -0.0718
      3 C          64.9054   90.3971   13.3701 C.ar    1  UNL1        0.0983
      4 C          64.0223   90.4692   12.1599 C.ar    1  UNL1        0.0830
      5 C          63.1122   89.2769   12.1785 C.ar    1  UNL1        0.0639
      6 C          64.1608   91.6112   11.1973 C.ar    1  UNL1        0.2663
      7 O          63.2775   91.6833    9.9870 O.2     1  UNL1       -0.2668
      8 N          65.1825   92.6811   11.4449 N.ar    1  UNL1       -0.2467
      9 C          65.3210   93.8232   10.4823 C.3     1  UNL1        0.1382
     10 C          66.0657   92.6090   12.6551 C.ar    1  UNL1        0.3342
     11 O          67.0875   93.6789   12.9028 O.2     1  UNL1       -0.2462
     12 N          65.9272   91.4670   13.6178 N.ar    1  UNL1       -0.2757
     13 C          62.0652   88.9509   11.1550 C.2     1  UNL1        0.2495
     14 O          62.4717   88.4833    9.7890 O.2     1  UNL1       -0.2699
     15 N          60.6117   89.0924   11.4976 N.am    1  UNL1       -0.2760
     16 C          59.3224   88.8685   10.7643 C.3     1  UNL1        0.0955
     17 C          58.5561   89.2926   11.9821 C.3     1  UNL1        0.0430
     18 C          59.8454   89.5165   12.7154 C.3     1  UNL1        0.0955
     19 C          62.7631   87.1910   13.8130 C.3     1  UNL1        0.1420
     20 C          64.2585   85.1417   14.6553 C.ar    1  UNL1        0.1982
     21 N          64.7795   83.8815   14.0304 N.ar    1  UNL1       -0.2138
     22 C          64.3074   83.8402   12.6073 C.ar    1  UNL1        0.0999
     23 C          64.5126   82.8380   11.5104 C.ar    1  UNL1        0.0207
     24 C          63.9049   83.0703   10.1588 C.ar    1  UNL1        0.0016
     25 C          63.0921   84.3050    9.9041 C.ar    1  UNL1        0.0016
     26 C          62.8869   85.3073   11.0010 C.ar    1  UNL1        0.0188
     27 C          63.4946   85.0749   12.3526 C.ar    1  UNL1        0.0802
     28 N          63.4643   85.8793   13.6183 N.ar    1  UNL1       -0.2950
     29 C          63.3256   85.9370   16.9460 C.3     1  UNL1        0.1108
     30 N          64.4908   85.5863   16.0689 N.pl3   1  UNL1       -0.3026
     31 H          65.4081   85.6479   16.4211 H       1  UNL1        0.1496
     32 C          66.8105   91.3949   14.8280 C.3     1  UNL1        0.1109
     33 C          66.7004   92.4382   15.9001 C.3     1  UNL1        0.0228
     34 C          67.8688   93.3287   16.2030 C.3     1  UNL1        0.0020
     35 C          65.4217   92.5909   16.6694 C.3     1  UNL1        0.0020
@<TRIPOS>BOND
     1    29    30    1
     2    30    20    1
     3    20    21   ar
     4    21    22   ar
     5    22    23   ar
     6    23    24   ar
     7    24    25   ar
     8    25    26   ar
     9    26    27   ar
    10    27    28   ar
    11    28    19    1
    12    19     1    1
    13     1     2   ar
    14     2     3   ar
    15     3     4   ar
    16     4     5   ar
    17     5    13    1
    18    13    14    2
    19    13    15   am
    20    15    16    1
    21    16    17    1
    22    17    18    1
    23     4     6   ar
    24     6     7    2
    25     6     8   ar
    26     8     9    1
    27     8    10   ar
    28    10    11    2
    29    10    12   ar
    30    12    32    1
    31    32    33    1
    32    33    34    1
    33    33    35    1
    34    28    20   ar
    35     5     1   ar
    36    18    15    1
    37    27    22   ar
    38    12     3   ar
    39    30    31    1
@<TRIPOS>MOLECULE
*****
 35 39 0 0 0
SMALL
GASTEIGER

@<TRIPOS>ATOM
      1 C          62.7234   88.6455   12.4282 C.ar    1  UNL1        0.0360
      2 S          63.2784   87.5954   13.3443 S.2     1  UNL1       -0.0718
      3 C          63.3638   86.3092   12.5773 C.ar    1  UNL1        0.0983
      4 C          62.8616   86.5642   11.1872 C.ar    1  UNL1        0.0830
      5 C          62.4658   88.0082   11.0949 C.ar    1  UNL1        0.0639
      6 C          62.8296   85.4488   10.1848 C.ar    1  UNL1        0.2663
      7 O          62.3273   85.7039    8.7946 O.2     1  UNL1       -0.2668
      8 N          63.2998   84.0782   10.5726 N.ar    1  UNL1       -0.2467
      9 C          63.2677   82.9628    9.5702 C.3     1  UNL1        0.1382
     10 C          63.8020   83.8231   11.9628 C.ar    1  UNL1        0.3342
     11 O          64.2722   82.4526   12.3507 O.2     1  UNL1       -0.2462
     12 N          63.8341   84.9385   12.9652 N.ar    1  UNL1       -0.2757
     13 C          61.9099   88.6943    9.8824 C.2     1  UNL1        0.2495
     14 O          62.5786   89.9244    9.3442 O.2     1  UNL1       -0.2699
     15 N          60.6854   88.1504    9.2081 N.am    1  UNL1       -0.2760
     16 C          59.8656   88.5481    8.0165 C.3     1  UNL1        0.0955
     17 C          58.9536   87.3811    8.2545 C.3     1  UNL1        0.0430
     18 C          59.7735   86.9834    9.4461 C.3     1  UNL1        0.0955
     19 C          62.4704   90.0807   12.7829 C.3     1  UNL1        0.1420
     20 C          63.8617   91.0979   14.8262 C.ar    1  UNL1        0.1982
     21 N          65.0470   92.0083   14.9534 N.ar    1  UNL1       -0.2138
     22 C          65.4905   92.3878   13.5717 C.ar    1  UNL1        0.0999
     23 C          66.6063   93.2615   13.0802 C.ar    1  UNL1        0.0207
     24 C          66.8109   93.4593   11.6075 C.ar    1  UNL1        0.0016
     25 C          65.8997   92.7834   10.6262 C.ar    1  UNL1        0.0016
     26 C          64.7840   91.9098   11.1177 C.ar    1  UNL1        0.0188
     27 C          64.5793   91.7120   12.5904 C.ar    1  UNL1        0.0802
     28 N          63.5727   90.9147   13.3657 N.ar    1  UNL1       -0.2950
     29 C          63.4340   89.0913   16.4200 C.3     1  UNL1        0.1108
     30 N          63.0993   90.4793   15.9602 N.pl3   1  UNL1       -0.3026
     31 H          62.3793   90.9842   16.4027 H       1  UNL1        0.1496
     32 C          64.3363   84.6834   14.3553 C.3     1  UNL1        0.1109
     33 C          63.3636   84.4621   15.4755 C.3     1  UNL1        0.0228
     34 C          62.5004   83.2355   15.4879 C.3     1  UNL1        0.0020
     35 C          63.2540   85.4676   16.5832 C.3     1  UNL1        0.0020
@<TRIPOS>BOND
     1    29    30    1
     2    30    20    1
     3    20    21   ar
     4    21    22   ar
     5    22    23   ar
     6    23    24   ar
     7    24    25   ar
     8    25    26   ar
     9    26    27   ar
    10    27    28   ar
    11    28    19    1
    12    19     1    1
    13     1     2   ar
    14     2     3   ar
    15     3     4   ar
    16     4     5   ar
    17     5    13    1
    18    13    14    2
    19    13    15   am
    20    15    16    1
    21    16    17    1
    22    17    18    1
    23     4     6   ar
    24     6     7    2
    25     6     8   ar
    26     8     9    1
    27     8    10   ar
    28    10    11    2
    29    10    12   ar
    30    12    32    1
    31    32    33    1
    32    33    34    1
    33    33    35    1
    34    28    20   ar
    35     5     1   ar
    36    18    15    1
    37    27    22   ar
    38    12     3   ar
    39    30    31    1
@<TRIPOS>MOLECULE
*****
 35 39 0 0 0
SMALL
GASTEIGER

@<TRIPOS>ATOM
      1 C          63.4901   90.1130   12.7541 C.ar    1  UNL1        0.0360
      2 S          63.8489   89.2311   13.9131 S.2     1  UNL1       -0.0718
      3 C          63.5914   87.8092   13.5108 C.ar    1  UNL1        0.0983
      4 C          63.0734   87.8123   12.1032 C.ar    1  UNL1        0.0830
      5 C          63.0108   89.2362   11.6354 C.ar    1  UNL1        0.0639
      6 C          62.7257   86.5182   11.4291 C.ar    1  UNL1        0.2663
      7 O          62.2077   86.5213   10.0214 O.2     1  UNL1       -0.2668
      8 N          62.8959   85.2209   12.1627 N.ar    1  UNL1       -0.2467
      9 C          62.5482   83.9269   11.4885 C.3     1  UNL1        0.1382
     10 C          63.4139   85.2178   13.5704 C.ar    1  UNL1        0.3342
     11 O          63.5841   83.9206   14.3040 O.2     1  UNL1       -0.2462
     12 N          63.7616   86.5119   14.2445 N.ar    1  UNL1       -0.2757
     13 C          62.5499   89.7014   10.2860 C.2     1  UNL1        0.2495
     14 O          63.4013   90.6420    9.4859 O.2     1  UNL1       -0.2699
     15 N          61.2375   89.2261    9.7367 N.am    1  UNL1       -0.2760
     16 C          60.4689   89.4640    8.4707 C.3     1  UNL1        0.0955
     17 C          59.3814   88.5539    8.9599 C.3     1  UNL1        0.0430
     18 C          60.1500   88.3160   10.2259 C.3     1  UNL1        0.0955
     19 C          63.5926   91.6090   12.7197 C.3     1  UNL1        0.1420
     20 C          65.7333   92.9116   11.7891 C.ar    1  UNL1        0.1982
     21 N          66.9951   93.4486   12.3968 N.ar    1  UNL1       -0.2138
     22 C          66.9696   93.1421   13.8649 C.ar    1  UNL1        0.0999
     23 C          67.9446   93.4306   14.9676 C.ar    1  UNL1        0.0207
     24 C          67.6419   92.9927   16.3700 C.ar    1  UNL1        0.0016
     25 C          66.3642   92.2663   16.6696 C.ar    1  UNL1        0.0016
     26 C          65.3892   91.9778   15.5669 C.ar    1  UNL1        0.0188
     27 C          65.6918   92.4157   14.1646 C.ar    1  UNL1        0.0802
     28 N          64.9278   92.2733   12.8817 N.ar    1  UNL1       -0.2950
     29 C          66.0903   93.9157    9.4196 C.3     1  UNL1        0.1108
     30 N          65.3451   92.9979   10.3428 N.pl3   1  UNL1       -0.3026
     31 H          64.6011   92.4521    9.9994 H       1  UNL1        0.1496
     32 C          64.2796   86.5087   15.6522 C.3     1  UNL1        0.1109
     33 C          63.3646   86.8559   16.7889 C.3     1  UNL1        0.0228
     34 C          62.6563   85.7682   17.5407 C.3     1  UNL1        0.0020
     35 C          63.1578   88.2909   17.1737 C.3     1  UNL1        0.0020
@<TRIPOS>BOND
     1    29    30    1
     2    30    20    1
     3    20    21   ar
     4    21    22   ar
     5    22    23   ar
     6    23    24   ar
     7    24    25   ar
     8    25    26   ar
     9    26    27   ar
    10    27    28   ar
    11    28    19    1
    12    19     1    1
    13     1     2   ar
    14     2     3   ar
    15     3     4   ar
    16     4     5   ar
    17     5    13    1
    18    13    14    2
    19    13    15   am
    20    15    16    1
    21    16    17    1
    22    17    18    1
    23     4     6   ar
    24     6     7    2
    25     6     8   ar
    26     8     9    1
    27     8    10   ar
    28    10    11    2
    29    10    12   ar
    30    12    32    1
    31    32    33    1
    32    33    34    1
    33    33    35    1
    34    28    20   ar
    35     5     1   ar
    36    18    15    1
    37    27    22   ar
    38    12     3   ar
    39    30    31    1
@<TRIPOS>MOLECULE
*****
 35 39 0 0 0
SMALL
GASTEIGER

@<TRIPOS>ATOM
      1 C          62.3824   89.7959   12.4941 C.ar    1  UNL1        0.0360
      2 S          63.0878   90.7357   11.5618 S.2     1  UNL1       -0.0718
      3 C          64.1711   91.4285   12.3340 C.ar    1  UNL1        0.0983
      4 C          64.1352   90.9171   13.7436 C.ar    1  UNL1        0.0830
      5 C          63.0297   89.9080   13.8426 C.ar    1  UNL1        0.0639
      6 C          65.1138   91.4362   14.7550 C.ar    1  UNL1        0.2663
      7 O          65.0779   90.9247   16.1646 O.2     1  UNL1       -0.2668
      8 N          66.1283   92.4668   14.3568 N.ar    1  UNL1       -0.2467
      9 C          67.1069   92.9859   15.3682 C.3     1  UNL1        0.1382
     10 C          66.1642   92.9783   12.9471 C.ar    1  UNL1        0.3342
     11 O          67.1787   94.0089   12.5488 O.2     1  UNL1       -0.2462
     12 N          65.1857   92.4592   11.9357 N.ar    1  UNL1       -0.2757
     13 C          62.6400   89.1451   15.0738 C.2     1  UNL1        0.2495
     14 O          61.4879   89.6129   15.9127 O.2     1  UNL1       -0.2699
     15 N          63.4023   87.9143   15.4662 N.am    1  UNL1       -0.2760
     16 C          63.3119   86.9235   16.5888 C.3     1  UNL1        0.0955
     17 C          64.4805   86.1736   16.0211 C.3     1  UNL1        0.0430
     18 C          64.5709   87.1644   14.8985 C.3     1  UNL1        0.0955
     19 C          61.2317   88.9012   12.1401 C.3     1  UNL1        0.1420
     20 C          62.2430   86.5940   11.2462 C.ar    1  UNL1        0.1982
     21 N          62.1274   85.8072    9.9744 N.ar    1  UNL1       -0.2138
     22 C          61.2183   86.5571    9.0464 C.ar    1  UNL1        0.0999
     23 C          60.7392   86.2632    7.6558 C.ar    1  UNL1        0.0207
     24 C          59.8139   87.2194    6.9635 C.ar    1  UNL1        0.0016
     25 C          59.3677   88.4697    7.6618 C.ar    1  UNL1        0.0016
     26 C          59.8468   88.7637    9.0524 C.ar    1  UNL1        0.0188
     27 C          60.7722   87.8075    9.7448 C.ar    1  UNL1        0.0802
     28 N          61.4055   87.8302   11.1043 N.ar    1  UNL1       -0.2950
     29 C          63.1602   84.7715   12.8548 C.3     1  UNL1        0.1108
     30 N          63.0539   86.2116   12.4489 N.pl3   1  UNL1       -0.3026
     31 H          63.5164   86.9059   12.9717 H       1  UNL1        0.1496
     32 C          65.2216   92.9707   10.5261 C.3     1  UNL1        0.1109
     33 C          66.5379   93.2412    9.8597 C.3     1  UNL1        0.0228
     34 C          67.5851   92.1687    9.8046 C.3     1  UNL1        0.0020
     35 C          66.8069   94.5842    9.2482 C.3     1  UNL1        0.0020
@<TRIPOS>BOND
     1    29    30    1
     2    30    20    1
     3    20    21   ar
     4    21    22   ar
     5    22    23   ar
     6    23    24   ar
     7    24    25   ar
     8    25    26   ar
     9    26    27   ar
    10    27    28   ar
    11    28    19    1
    12    19     1    1
    13     1     2   ar
    14     2     3   ar
    15     3     4   ar
    16     4     5   ar
    17     5    13    1
    18    13    14    2
    19    13    15   am
    20    15    16    1
    21    16    17    1
    22    17    18    1
    23     4     6   ar
    24     6     7    2
    25     6     8   ar
    26     8     9    1
    27     8    10   ar
    28    10    11    2
    29    10    12   ar
    30    12    32    1
    31    32    33    1
    32    33    34    1
    33    33    35    1
    34    28    20   ar
    35     5     1   ar
    36    18    15    1
    37    27    22   ar
    38    12     3   ar
    39    30    31    1
@<TRIPOS>MOLECULE
*****
 35 39 0 0 0
SMALL
GASTEIGER

@<TRIPOS>ATOM
      1 C          62.9241   86.8711   11.9393 C.ar    1  UNL1        0.0360
      2 S          62.3544   86.0402   10.8281 S.2     1  UNL1       -0.0718
      3 C          61.5525   86.9430    9.9383 C.ar    1  UNL1        0.0983
      4 C          61.6266   88.3320   10.4995 C.ar    1  UNL1        0.0830
      5 C          62.4744   88.2877   11.7362 C.ar    1  UNL1        0.0639
      6 C          60.9126   89.4579    9.8119 C.ar    1  UNL1        0.2663
      7 O          60.9868   90.8469   10.3732 O.2     1  UNL1       -0.2668
      8 N          60.1245   89.1947    8.5631 N.ar    1  UNL1       -0.2467
      9 C          59.4105   90.3205    7.8756 C.3     1  UNL1        0.1382
     10 C          60.0503   87.8057    8.0019 C.ar    1  UNL1        0.3342
     11 O          59.2622   87.5424    6.7531 O.2     1  UNL1       -0.2462
     12 N          60.7643   86.6798    8.6894 N.ar    1  UNL1       -0.2757
     13 C          62.8129   89.4548   12.6155 C.2     1  UNL1        0.2495
     14 O          62.3511   89.4776   14.0424 O.2     1  UNL1       -0.2699
     15 N          63.6132   90.5992   12.0678 N.am    1  UNL1       -0.2760
     16 C          64.1287   91.8942   12.6220 C.3     1  UNL1        0.0955
     17 C          64.7450   92.2176   11.2932 C.3     1  UNL1        0.0430
     18 C          64.2294   90.9226   10.7389 C.3     1  UNL1        0.0955
     19 C          63.7914   86.3732   13.0572 C.3     1  UNL1        0.1420
     20 C          63.1175   85.1601   15.3419 C.ar    1  UNL1        0.1982
     21 N          62.7121   83.7674   15.7238 N.ar    1  UNL1       -0.2138
     22 C          62.7099   82.9279   14.4807 C.ar    1  UNL1        0.0999
     23 C          62.3922   81.4807   14.2475 C.ar    1  UNL1        0.0207
     24 C          62.4784   80.9073   12.8641 C.ar    1  UNL1        0.0016
     25 C          62.8824   81.7813   11.7138 C.ar    1  UNL1        0.0016
     26 C          63.2002   83.2285   11.9471 C.ar    1  UNL1        0.0188
     27 C          63.1139   83.8019   13.3305 C.ar    1  UNL1        0.0802
     28 N          63.3658   85.1814   13.8627 N.ar    1  UNL1       -0.2950
     29 C          62.4876   86.3457   17.5662 C.3     1  UNL1        0.1108
     30 N          63.2512   86.3267   16.2752 N.pl3   1  UNL1       -0.3026
     31 H          63.8400   87.0800   16.0405 H       1  UNL1        0.1496
     32 C          60.6902   85.2908    8.1281 C.3     1  UNL1        0.1109
     33 C          61.7505   84.8054    7.1847 C.3     1  UNL1        0.0228
     34 C          61.3678   84.2754    5.8347 C.3     1  UNL1        0.0020
     35 C          63.1936   84.8501    7.5914 C.3     1  UNL1        0.0020
@<TRIPOS>BOND
     1    29    30    1
     2    30    20    1
     3    20    21   ar
     4    21    22   ar
     5    22    23   ar
     6    23    24   ar
     7    24    25   ar
     8    25    26   ar
     9    26    27   ar
    10    27    28   ar
    11    28    19    1
    12    19     1    1
    13     1     2   ar
    14     2     3   ar
    15     3     4   ar
    16     4     5   ar
    17     5    13    1
    18    13    14    2
    19    13    15   am
    20    15    16    1
    21    16    17    1
    22    17    18    1
    23     4     6   ar
    24     6     7    2
    25     6     8   ar
    26     8     9    1
    27     8    10   ar
    28    10    11    2
    29    10    12   ar
    30    12    32    1
    31    32    33    1
    32    33    34    1
    33    33    35    1
    34    28    20   ar
    35     5     1   ar
    36    18    15    1
    37    27    22   ar
    38    12     3   ar
    39    30    31    1
@<TRIPOS>MOLECULE
*****
 35 39 0 0 0
SMALL
GASTEIGER

@<TRIPOS>ATOM
      1 C          61.9400   86.9636   11.6882 C.ar    1  UNL1        0.0360
      2 S          62.1784   86.4213   13.0662 S.2     1  UNL1       -0.0718
      3 C          62.6516   85.0043   12.9313 C.ar    1  UNL1        0.0983
      4 C          62.7057   84.6708   11.4699 C.ar    1  UNL1        0.0830
      5 C          62.2659   85.8818   10.7016 C.ar    1  UNL1        0.0639
      6 C          63.1484   83.3077   11.0275 C.ar    1  UNL1        0.2663
      7 O          63.2025   82.9742    9.5660 O.2     1  UNL1       -0.2668
      8 N          63.5371   82.2779   12.0465 N.ar    1  UNL1       -0.2467
      9 C          63.9798   80.9147   11.6041 C.3     1  UNL1        0.1382
     10 C          63.4831   82.6113   13.5080 C.ar    1  UNL1        0.3342
     11 O          63.8717   81.5816   14.5271 O.2     1  UNL1       -0.2462
     12 N          63.0403   83.9745   13.9504 N.ar    1  UNL1       -0.2757
     13 C          62.1690   85.9916    9.2088 C.2     1  UNL1        0.2495
     14 O          63.3834   85.7604    8.3594 O.2     1  UNL1       -0.2699
     15 N          60.8575   86.3325    8.5654 N.am    1  UNL1       -0.2760
     16 C          60.3865   86.5241    7.1541 C.3     1  UNL1        0.0955
     17 C          59.0029   86.8147    7.6554 C.3     1  UNL1        0.0430
     18 C          59.4739   86.6232    9.0667 C.3     1  UNL1        0.0955
     19 C          61.4600   88.3451   11.3552 C.3     1  UNL1        0.1420
     20 C          62.6106   90.4933   10.2568 C.ar    1  UNL1        0.1982
     21 N          63.6709   91.4641   10.6850 N.ar    1  UNL1       -0.2138
     22 C          64.1385   91.0661   12.0535 C.ar    1  UNL1        0.0999
     23 C          65.1669   91.6545   12.9733 C.ar    1  UNL1        0.0207
     24 C          65.4241   91.0260   14.3108 C.ar    1  UNL1        0.0016
     25 C          64.6528   89.8092   14.7285 C.ar    1  UNL1        0.0016
     26 C          63.6244   89.2208   13.8086 C.ar    1  UNL1        0.0188
     27 C          63.3672   89.8493   12.4712 C.ar    1  UNL1        0.0802
     28 N          62.4230   89.4953   11.3608 N.ar    1  UNL1       -0.2950
     29 C          60.4659   89.9896    8.8797 C.3     1  UNL1        0.1108
     30 N          61.8684   90.5164    8.9535 N.pl3   1  UNL1       -0.3026
     31 H          62.3017   90.8774    8.1466 H       1  UNL1        0.1496
     32 C          62.9863   84.3079   15.4119 C.3     1  UNL1        0.1109
     33 C          63.6996   85.5209   15.9314 C.3     1  UNL1        0.0228
     34 C          64.9896   85.9587   15.3036 C.3     1  UNL1        0.0020
     35 C          63.1228   86.2960   17.0787 C.3     1  UNL1        0.0020
@<TRIPOS>BOND
     1    29    30    1
     2    30    20    1
     3    20    21   ar
     4    21    22   ar
     5    22    23   ar
     6    23    24   ar
     7    24    25   ar
     8    25    26   ar
     9    26    27   ar
    10    27    28   ar
    11    28    19    1
    12    19     1    1
    13     1     2   ar
    14     2     3   ar
    15     3     4   ar
    16     4     5   ar
    17     5    13    1
    18    13    14    2
    19    13    15   am
    20    15    16    1
    21    16    17    1
    22    17    18    1
    23     4     6   ar
    24     6     7    2
    25     6     8   ar
    26     8     9    1
    27     8    10   ar
    28    10    11    2
    29    10    12   ar
    30    12    32    1
    31    32    33    1
    32    33    34    1
    33    33    35    1
    34    28    20   ar
    35     5     1   ar
    36    18    15    1
    37    27    22   ar
    38    12     3   ar
    39    30    31    1
@<TRIPOS>MOLECULE
*****
 35 39 0 0 0
SMALL
GASTEIGER

@<TRIPOS>ATOM
      1 C          63.8457   88.4032   13.1531 C.ar    1  UNL1        0.0360
      2 S          63.3645   87.0921   12.6059 S.2     1  UNL1       -0.0718
      3 C          62.4725   87.3781   11.4343 C.ar    1  UNL1        0.0983
      4 C          62.4025   88.8659   11.2573 C.ar    1  UNL1        0.0830
      5 C          63.2512   89.4995   12.3196 C.ar    1  UNL1        0.0639
      6 C          61.5750   89.4516   10.1518 C.ar    1  UNL1        0.2663
      7 O          61.5050   90.9395    9.9748 O.2     1  UNL1       -0.2668
      8 N          60.8175   88.5494    9.2232 N.ar    1  UNL1       -0.2467
      9 C          59.9900   89.1352    8.1176 C.3     1  UNL1        0.1382
     10 C          60.8875   87.0616    9.4001 C.ar    1  UNL1        0.3342
     11 O          60.1301   86.1594    8.4716 O.2     1  UNL1       -0.2462
     12 N          61.7150   86.4759   10.5056 N.ar    1  UNL1       -0.2757
     13 C          63.4674   90.9710   12.5142 C.2     1  UNL1        0.2495
     14 O          62.6877   91.7117   13.5599 O.2     1  UNL1       -0.2699
     15 N          64.4632   91.7018   11.6632 N.am    1  UNL1       -0.2760
     16 C          64.9373   93.1218   11.5677 C.3     1  UNL1        0.0955
     17 C          65.8715   92.7353   10.4595 C.3     1  UNL1        0.0430
     18 C          65.3974   91.3154   10.5550 C.3     1  UNL1        0.0955
     19 C          64.7607   88.5860   14.3274 C.3     1  UNL1        0.1420
     20 C          63.7439   90.3081   16.1010 C.ar    1  UNL1        0.1982
     21 N          64.1318   91.6677   16.6018 N.ar    1  UNL1       -0.2138
     22 C          65.3881   92.0813   15.8943 C.ar    1  UNL1        0.0999
     23 C          66.2286   93.3205   15.9830 C.ar    1  UNL1        0.0207
     24 C          67.4575   93.4557   15.1336 C.ar    1  UNL1        0.0016
     25 C          67.8460   92.3516   14.1955 C.ar    1  UNL1        0.0016
     26 C          67.0056   91.1124   14.1068 C.ar    1  UNL1        0.0188
     27 C          65.7767   90.9772   14.9562 C.ar    1  UNL1        0.0802
     28 N          64.7605   89.8813   15.0839 N.ar    1  UNL1       -0.2950
     29 C          62.7341   88.1602   17.1578 C.3     1  UNL1        0.1108
     30 N          62.5491   89.5145   16.5401 N.pl3   1  UNL1       -0.3026
     31 H          61.6436   89.8826   16.4229 H       1  UNL1        0.1496
     32 C          61.7850   84.9880   10.6826 C.3     1  UNL1        0.1109
     33 C          62.9658   84.2252   10.1594 C.3     1  UNL1        0.0228
     34 C          63.6262   83.1854   11.0155 C.3     1  UNL1        0.0020
     35 C          63.4863   84.5022    8.7801 C.3     1  UNL1        0.0020
@<TRIPOS>BOND
     1    29    30    1
     2    30    20    1
     3    20    21   ar
     4    21    22   ar
     5    22    23   ar
     6    23    24   ar
     7    24    25   ar
     8    25    26   ar
     9    26    27   ar
    10    27    28   ar
    11    28    19    1
    12    19     1    1
    13     1     2   ar
    14     2     3   ar
    15     3     4   ar
    16     4     5   ar
    17     5    13    1
    18    13    14    2
    19    13    15   am
    20    15    16    1
    21    16    17    1
    22    17    18    1
    23     4     6   ar
    24     6     7    2
    25     6     8   ar
    26     8     9    1
    27     8    10   ar
    28    10    11    2
    29    10    12   ar
    30    12    32    1
    31    32    33    1
    32    33    34    1
    33    33    35    1
    34    28    20   ar
    35     5     1   ar
    36    18    15    1
    37    27    22   ar
    38    12     3   ar
    39    30    31    1
