@<TRIPOS>MOLECULE
*****
 47 51 0 0 0
SMALL
GASTEIGER

@<TRIPOS>ATOM
      1 C          60.8141   86.9496    9.3529 C.3     1  UNL1        0.0964
      2 C          59.9664   86.1382    8.4185 C.3     1  UNL1        0.0780
      3 N          59.0054   86.8225    7.4921 N.3     1  UNL1       -0.2970
      4 C          58.8920   88.3181    7.5002 C.3     1  UNL1        0.0689
      5 C          59.7397   89.1295    8.4346 C.3     1  UNL1        0.0220
      6 C          60.7007   88.4452    9.3610 C.3     1  UNL1        0.0337
      7 H          58.0781   86.4557    7.7064 H       1  UNL1        0.1233
      8 C          61.5483   89.2566   10.2954 C.ar    1  UNL1       -0.0217
      9 C          62.7553   89.9801    9.7763 C.ar    1  UNL1       -0.0012
     10 C          63.6029   90.7915   10.7107 C.ar    1  UNL1        0.0366
     11 C          63.2436   90.8794   12.1643 C.ar    1  UNL1        0.1387
     12 C          62.0366   90.1559   12.6835 C.ar    1  UNL1        0.0366
     13 C          61.1889   89.3445   11.7491 C.ar    1  UNL1       -0.0012
     14 O          64.0912   91.6908   13.0988 O.3     1  UNL1       -0.4714
     15 C          65.4785   92.0933   12.6948 C.3     1  UNL1        0.2525
     16 C          65.8719   93.5408   12.7031 C.3     1  UNL1        0.2525
     17 O          67.0799   93.9941   11.9380 O.3     1  UNL1       -0.4697
     18 C          66.9143   94.7085   10.6295 C.ar    1  UNL1        0.1596
     19 C          67.2832   94.0217    9.3480 C.ar    1  UNL1        0.0921
     20 CL         67.8176   92.6204    9.3751 Cl      1  UNL1       -0.0791
     21 C          67.1177   94.7362    8.0396 C.ar    1  UNL1        0.0103
     22 C          66.5832   96.1374    8.0125 C.ar    1  UNL1       -0.0200
     23 C          66.4177   96.8519    6.7040 C.3     1  UNL1        0.0311
     24 C          66.2143   96.8243    9.2940 C.ar    1  UNL1        0.0103
     25 C          66.3799   96.1099   10.6025 C.ar    1  UNL1        0.0921
     26 CL         66.0110   96.7967   11.8839 Cl      1  UNL1       -0.0791
     27 N          62.7441   85.2544    9.7417 N.am    1  UNL1       -0.2770
     28 C          61.7751   86.2652   10.2793 C.2     1  UNL1        0.2270
     29 O          61.7671   86.5918   11.7433 O.2     1  UNL1       -0.2748
     30 C          62.7522   84.9278    8.2777 C.3     1  UNL1        0.0758
     31 C          63.4893   84.4787    7.0510 C.3     1  UNL1        0.0215
     32 C          62.0290   84.8112    6.9688 C.3     1  UNL1        0.0215
     33 C          63.7052   84.5700   10.6681 C.3     1  UNL1        0.1209
     34 C          62.3269   83.3921   14.1984 C.ar    1  UNL1       -0.0133
     35 C          62.1574   81.9208   13.9599 C.ar    1  UNL1       -0.0029
     36 C          62.5038   81.3327   12.6243 C.ar    1  UNL1        0.0108
     37 C          63.0197   82.2158   11.5270 C.ar    1  UNL1        0.0553
     38 CL         63.3662   81.6277   10.1913 Cl      1  UNL1       -0.0825
     39 C          63.1892   83.6869   11.7654 C.ar    1  UNL1        0.0080
     40 C          62.8428   84.2751   13.1011 C.ar    1  UNL1       -0.0056
     41 C          61.9805   83.9802   15.5341 C.3     1  UNL1        0.1113
     42 N          62.1019   86.1375   16.9768 N.am    1  UNL1       -0.3041
     43 C          62.7619   85.1448   16.0662 C.2     1  UNL1        0.2269
     44 O          64.2031   85.3166   15.6879 O.2     1  UNL1       -0.2747
     45 H          61.1560   86.0247   17.2251 H       1  UNL1        0.1494
     46 C          63.1644   88.4825   16.6272 C.3     1  UNL1        0.0230
     47 C          62.8834   87.3021   17.5090 C.3     1  UNL1        0.0895
@<TRIPOS>BOND
     1    46    47    1
     2    47    42    1
     3    42    43   am
     4    43    44    2
     5    43    41    1
     6    41    34    1
     7    34    35   ar
     8    35    36   ar
     9    36    37   ar
    10    37    38    1
    11    37    39   ar
    12    39    33    1
    13    33    27    1
    14    27    28   am
    15    28    29    2
    16     1    28    1
    17     1     2    1
    18     2     3    1
    19     3     4    1
    20     4     5    1
    21     5     6    1
    22     6     8    1
    23     8     9   ar
    24     9    10   ar
    25    10    11   ar
    26    11    14    1
    27    14    15    1
    28    15    16    1
    29    16    17    1
    30    17    18    1
    31    18    19   ar
    32    19    20    1
    33    19    21   ar
    34    21    22   ar
    35    22    23    1
    36    22    24   ar
    37    24    25   ar
    38    25    26    1
    39    11    12   ar
    40    12    13   ar
    41    27    30    1
    42    30    31    1
    43    31    32    1
    44    39    40   ar
    45    40    34   ar
    46     6     1    1
    47    13     8   ar
    48    32    30    1
    49    25    18   ar
    50    42    45    1
    51     3     7    1
@<TRIPOS>MOLECULE
*****
 47 51 0 0 0
SMALL
GASTEIGER

@<TRIPOS>ATOM
      1 C          62.2005   93.2372   -0.2653 C.3     1  UNL1        0.0964
      2 C          63.1032   93.6876   -1.3754 C.3     1  UNL1        0.0780
      3 N          64.4752   94.2069   -1.0624 N.3     1  UNL1       -0.2970
      4 C          64.9444   94.2758    0.3606 C.3     1  UNL1        0.0689
      5 C          64.0417   93.8255    1.4707 C.3     1  UNL1        0.0220
      6 C          62.6697   93.3062    1.1577 C.3     1  UNL1        0.0337
      7 H          64.5230   95.1554   -1.4345 H       1  UNL1        0.1233
      8 C          61.7669   92.8558    2.2678 C.ar    1  UNL1       -0.0217
      9 C          62.2185   91.7822    3.2129 C.ar    1  UNL1       -0.0012
     10 C          61.3158   91.3319    4.3230 C.ar    1  UNL1        0.0366
     11 C          59.9615   91.9551    4.4879 C.ar    1  UNL1        0.1387
     12 C          59.5099   93.0288    3.5428 C.ar    1  UNL1        0.0366
     13 C          60.4126   93.4791    2.4327 C.ar    1  UNL1       -0.0012
     14 O          59.0587   91.5048    5.5980 O.3     1  UNL1       -0.4714
     15 C          58.9276   90.0440    5.9121 C.3     1  UNL1        0.2525
     16 C          59.7645   89.4318    6.9961 C.3     1  UNL1        0.2525
     17 O          59.1533   88.4499    7.9513 O.3     1  UNL1       -0.4697
     18 C          60.0171   87.7373    8.9493 C.ar    1  UNL1        0.1596
     19 C          60.3805   88.4080   10.2408 C.ar    1  UNL1        0.0921
     20 CL         59.8801   89.7912   10.5344 Cl      1  UNL1       -0.0791
     21 C          61.2444   87.6954   11.2388 C.ar    1  UNL1        0.0103
     22 C          61.7449   86.3122   10.9453 C.ar    1  UNL1       -0.0200
     23 C          62.6088   85.5996   11.9432 C.3     1  UNL1        0.0311
     24 C          61.3815   85.6415    9.6537 C.ar    1  UNL1        0.0103
     25 C          60.5176   86.3541    8.6557 C.ar    1  UNL1        0.0921
     26 CL         60.1542   85.6834    7.3641 Cl      1  UNL1       -0.0791
     27 N          59.7851   93.6421   -1.1326 N.am    1  UNL1       -0.2770
     28 C          60.8284   92.7179   -0.5783 C.2     1  UNL1        0.2270
     29 O          60.4998   91.2744   -0.3370 O.2     1  UNL1       -0.2748
     30 C          60.1137   95.0856   -1.3739 C.3     1  UNL1        0.0758
     31 C          60.4710   96.4427   -0.8442 C.3     1  UNL1        0.0215
     32 C          60.3256   96.2287   -2.3217 C.3     1  UNL1        0.0215
     33 C          58.4131   93.1228   -1.4456 C.3     1  UNL1        0.1209
     34 C          57.1761   93.4448   -5.2028 C.ar    1  UNL1       -0.0133
     35 C          56.2256   94.5998   -5.0903 C.ar    1  UNL1       -0.0029
     36 C          56.0044   95.2624   -3.7629 C.ar    1  UNL1        0.0108
     37 C          56.7335   94.7701   -2.5480 C.ar    1  UNL1        0.0553
     38 CL         56.5122   95.4327   -1.2207 Cl      1  UNL1       -0.0825
     39 C          57.6839   93.6151   -2.6605 C.ar    1  UNL1        0.0080
     40 C          57.9052   92.9524   -3.9879 C.ar    1  UNL1       -0.0056
     41 C          57.3973   92.7821   -6.5302 C.3     1  UNL1        0.1113
     42 N          55.1495   91.5000   -6.7614 N.am    1  UNL1       -0.3041
     43 C          56.6446   91.5326   -6.8794 C.2     1  UNL1        0.2269
     44 O          57.3867   90.3157   -7.3466 O.2     1  UNL1       -0.2747
     45 H          54.6624   92.2987   -6.4548 H       1  UNL1        0.1494
     46 C          53.6651   89.4924   -6.0430 C.3     1  UNL1        0.0230
     47 C          54.3967   90.2505   -7.1107 C.3     1  UNL1        0.0895
@<TRIPOS>BOND
     1    46    47    1
     2    47    42    1
     3    42    43   am
     4    43    44    2
     5    43    41    1
     6    41    34    1
     7    34    35   ar
     8    35    36   ar
     9    36    37   ar
    10    37    38    1
    11    37    39   ar
    12    39    33    1
    13    33    27    1
    14    27    28   am
    15    28    29    2
    16     1    28    1
    17     1     2    1
    18     2     3    1
    19     3     4    1
    20     4     5    1
    21     5     6    1
    22     6     8    1
    23     8     9   ar
    24     9    10   ar
    25    10    11   ar
    26    11    14    1
    27    14    15    1
    28    15    16    1
    29    16    17    1
    30    17    18    1
    31    18    19   ar
    32    19    20    1
    33    19    21   ar
    34    21    22   ar
    35    22    23    1
    36    22    24   ar
    37    24    25   ar
    38    25    26    1
    39    11    12   ar
    40    12    13   ar
    41    27    30    1
    42    30    31    1
    43    31    32    1
    44    39    40   ar
    45    40    34   ar
    46     6     1    1
    47    13     8   ar
    48    32    30    1
    49    25    18   ar
    50    42    45    1
    51     3     7    1
@<TRIPOS>MOLECULE
*****
 47 51 0 0 0
SMALL
GASTEIGER

@<TRIPOS>ATOM
      1 C          60.7128   86.8883    9.2709 C.3     1  UNL1        0.0964
      2 C          59.9592   86.0515    8.2800 C.3     1  UNL1        0.0780
      3 N          59.0142   86.7023    7.3139 N.3     1  UNL1       -0.2970
      4 C          58.8228   88.1898    7.3387 C.3     1  UNL1        0.0689
      5 C          59.5764   89.0265    8.3297 C.3     1  UNL1        0.0220
      6 C          60.5214   88.3758    9.2958 C.3     1  UNL1        0.0337
      7 H          58.0972   86.2847    7.4724 H       1  UNL1        0.1233
      8 C          61.2750   89.2125   10.2867 C.ar    1  UNL1       -0.0217
      9 C          62.5865   89.8307    9.9026 C.ar    1  UNL1       -0.0012
     10 C          63.3401   90.6674   10.8936 C.ar    1  UNL1        0.0366
     11 C          62.7822   90.8859   12.2686 C.ar    1  UNL1        0.1387
     12 C          61.4706   90.2677   12.6528 C.ar    1  UNL1        0.0366
     13 C          60.7170   89.4310   11.6618 C.ar    1  UNL1       -0.0012
     14 O          63.5357   91.7227   13.2596 O.3     1  UNL1       -0.4714
     15 C          64.8723   91.2657   13.7643 C.3     1  UNL1        0.2525
     16 C          65.8563   92.2665   14.2936 C.3     1  UNL1        0.2525
     17 O          66.3151   93.3993   13.4239 O.3     1  UNL1       -0.4697
     18 C          66.9626   93.1148   12.1011 C.ar    1  UNL1        0.1596
     19 C          66.5105   93.8460   10.8720 C.ar    1  UNL1        0.0921
     20 CL         65.4108   94.8619   10.9657 Cl      1  UNL1       -0.0791
     21 C          67.1580   93.5614    9.5492 C.ar    1  UNL1        0.0103
     22 C          68.2576   92.5456    9.4556 C.ar    1  UNL1       -0.0200
     23 C          68.9051   92.2610    8.1328 C.3     1  UNL1        0.0311
     24 C          68.7098   91.8143   10.6847 C.ar    1  UNL1        0.0103
     25 C          68.0623   92.0989   12.0075 C.ar    1  UNL1        0.0921
     26 CL         68.5144   91.3676   13.2366 Cl      1  UNL1       -0.0791
     27 N          62.7027   85.2842    9.7374 N.am    1  UNL1       -0.2770
     28 C          61.6579   86.2374   10.2371 C.2     1  UNL1        0.2270
     29 O          61.5580   86.5398   11.7029 O.2     1  UNL1       -0.2748
     30 C          62.8025   84.9818    8.2716 C.3     1  UNL1        0.0758
     31 C          62.1430   84.6504    6.9658 C.3     1  UNL1        0.0215
     32 C          63.6348   84.7894    7.0387 C.3     1  UNL1        0.0215
     33 C          63.6477   84.6333   10.7035 C.3     1  UNL1        0.1209
     34 C          62.2394   83.5096   14.2396 C.ar    1  UNL1       -0.0133
     35 C          62.0478   82.0390   14.0141 C.ar    1  UNL1       -0.0029
     36 C          62.3896   81.4333   12.6851 C.ar    1  UNL1        0.0108
     37 C          62.9228   82.2981   11.5816 C.ar    1  UNL1        0.0553
     38 CL         63.2646   81.6924   10.2526 Cl      1  UNL1       -0.0825
     39 C          63.1144   83.7686   11.8070 C.ar    1  UNL1        0.0080
     40 C          62.7727   84.3743   13.1361 C.ar    1  UNL1       -0.0056
     41 C          61.8976   84.1153   15.5686 C.3     1  UNL1        0.1113
     42 N          62.1086   86.3453   16.8849 N.am    1  UNL1       -0.3041
     43 C          62.7470   85.2159   16.1319 C.2     1  UNL1        0.2269
     44 O          64.2346   85.1871   15.9422 O.2     1  UNL1       -0.2747
     45 H          61.1322   86.3642   17.0094 H       1  UNL1        0.1494
     46 C          63.0935   88.7428   16.7070 C.3     1  UNL1        0.0230
     47 C          62.9580   87.4459   17.4482 C.3     1  UNL1        0.0895
@<TRIPOS>BOND
     1    46    47    1
     2    47    42    1
     3    42    43   am
     4    43    44    2
     5    43    41    1
     6    41    34    1
     7    34    35   ar
     8    35    36   ar
     9    36    37   ar
    10    37    38    1
    11    37    39   ar
    12    39    33    1
    13    33    27    1
    14    27    28   am
    15    28    29    2
    16     1    28    1
    17     1     2    1
    18     2     3    1
    19     3     4    1
    20     4     5    1
    21     5     6    1
    22     6     8    1
    23     8     9   ar
    24     9    10   ar
    25    10    11   ar
    26    11    14    1
    27    14    15    1
    28    15    16    1
    29    16    17    1
    30    17    18    1
    31    18    19   ar
    32    19    20    1
    33    19    21   ar
    34    21    22   ar
    35    22    23    1
    36    22    24   ar
    37    24    25   ar
    38    25    26    1
    39    11    12   ar
    40    12    13   ar
    41    27    30    1
    42    30    31    1
    43    31    32    1
    44    39    40   ar
    45    40    34   ar
    46     6     1    1
    47    13     8   ar
    48    32    30    1
    49    25    18   ar
    50    42    45    1
    51     3     7    1
@<TRIPOS>MOLECULE
*****
 47 51 0 0 0
SMALL
GASTEIGER

@<TRIPOS>ATOM
      1 C          62.4109   93.4360    0.0469 C.3     1  UNL1        0.0964
      2 C          63.3680   93.9781   -0.9730 C.3     1  UNL1        0.0780
      3 N          64.7441   94.4061   -0.5572 N.3     1  UNL1       -0.2970
      4 C          65.1632   94.2921    0.8785 C.3     1  UNL1        0.0689
      5 C          64.2062   93.7499    1.8984 C.3     1  UNL1        0.0220
      6 C          62.8301   93.3219    1.4826 C.3     1  UNL1        0.0337
      7 H          64.8369   95.3890   -0.8139 H       1  UNL1        0.1233
      8 C          61.8730   92.7797    2.5025 C.ar    1  UNL1       -0.0217
      9 C          62.2861   91.6420    3.3884 C.ar    1  UNL1       -0.0012
     10 C          61.3291   91.0999    4.4083 C.ar    1  UNL1        0.0366
     11 C          59.9590   91.6955    4.5423 C.ar    1  UNL1        0.1387
     12 C          59.5459   92.8332    3.6564 C.ar    1  UNL1        0.0366
     13 C          60.5029   93.3753    2.6365 C.ar    1  UNL1       -0.0012
     14 O          59.0020   91.1533    5.5622 O.3     1  UNL1       -0.4714
     15 C          59.1426   89.7406    6.0462 C.3     1  UNL1        0.2525
     16 C          59.7958   89.4619    7.3674 C.3     1  UNL1        0.2525
     17 O          59.1963   88.4540    8.3027 O.3     1  UNL1       -0.4697
     18 C          60.0810   87.6627    9.2199 C.ar    1  UNL1        0.1596
     19 C          60.4135   88.1928   10.5831 C.ar    1  UNL1        0.0921
     20 CL         59.8612   89.5141   11.0291 Cl      1  UNL1       -0.0791
     21 C          61.2982   87.4015   11.5003 C.ar    1  UNL1        0.0103
     22 C          61.8504   86.0802   11.0542 C.ar    1  UNL1       -0.0200
     23 C          62.7351   85.2889   11.9714 C.3     1  UNL1        0.0311
     24 C          61.5179   85.5500    9.6909 C.ar    1  UNL1        0.0103
     25 C          60.6332   86.3413    8.7738 C.ar    1  UNL1        0.0921
     26 CL         60.3007   85.8112    7.4105 Cl      1  UNL1       -0.0791
     27 N          59.9813   94.0384   -0.6489 N.am    1  UNL1       -0.2770
     28 C          61.0347   93.0079   -0.3690 C.2     1  UNL1        0.2270
     29 O          60.7120   91.5494   -0.5049 O.2     1  UNL1       -0.2748
     30 C          60.3040   95.4969   -0.5129 C.3     1  UNL1        0.0758
     31 C          61.0661   96.7065   -0.9668 C.3     1  UNL1        0.0215
     32 C          60.1008   96.8135    0.1764 C.3     1  UNL1        0.0215
     33 C          58.6051   93.6103   -1.0647 C.3     1  UNL1        0.1209
     34 C          58.7467   94.0034   -5.0113 C.ar    1  UNL1       -0.0133
     35 C          57.6334   93.0882   -5.4274 C.ar    1  UNL1       -0.0029
     36 C          56.8441   92.3471   -4.3894 C.ar    1  UNL1        0.0108
     37 C          57.1679   92.5212   -2.9351 C.ar    1  UNL1        0.0553
     38 CL         56.3786   91.7801   -1.8970 Cl      1  UNL1       -0.0825
     39 C          58.2812   93.4363   -2.5190 C.ar    1  UNL1        0.0080
     40 C          59.0706   94.1774   -3.5571 C.ar    1  UNL1       -0.0056
     41 C          59.5361   94.7444   -6.0494 C.3     1  UNL1        0.1113
     42 N          61.7463   95.5018   -4.9130 N.am    1  UNL1       -0.3041
     43 C          61.0351   94.7433   -5.9941 C.2     1  UNL1        0.2269
     44 O          61.8228   93.9836   -7.0199 O.2     1  UNL1       -0.2747
     45 H          61.2293   96.0004   -4.2397 H       1  UNL1        0.1494
     46 C          63.9621   96.4319   -3.9256 C.3     1  UNL1        0.0230
     47 C          63.2453   95.5007   -4.8577 C.3     1  UNL1        0.0895
@<TRIPOS>BOND
     1    46    47    1
     2    47    42    1
     3    42    43   am
     4    43    44    2
     5    43    41    1
     6    41    34    1
     7    34    35   ar
     8    35    36   ar
     9    36    37   ar
    10    37    38    1
    11    37    39   ar
    12    39    33    1
    13    33    27    1
    14    27    28   am
    15    28    29    2
    16     1    28    1
    17     1     2    1
    18     2     3    1
    19     3     4    1
    20     4     5    1
    21     5     6    1
    22     6     8    1
    23     8     9   ar
    24     9    10   ar
    25    10    11   ar
    26    11    14    1
    27    14    15    1
    28    15    16    1
    29    16    17    1
    30    17    18    1
    31    18    19   ar
    32    19    20    1
    33    19    21   ar
    34    21    22   ar
    35    22    23    1
    36    22    24   ar
    37    24    25   ar
    38    25    26    1
    39    11    12   ar
    40    12    13   ar
    41    27    30    1
    42    30    31    1
    43    31    32    1
    44    39    40   ar
    45    40    34   ar
    46     6     1    1
    47    13     8   ar
    48    32    30    1
    49    25    18   ar
    50    42    45    1
    51     3     7    1
@<TRIPOS>MOLECULE
*****
 47 51 0 0 0
SMALL
GASTEIGER

@<TRIPOS>ATOM
      1 C          65.3436   91.9728   13.4138 C.3     1  UNL1        0.0964
      2 C          66.2406   93.0635   12.9081 C.3     1  UNL1        0.0780
      3 N          67.4775   93.4321   13.6724 N.3     1  UNL1       -0.2970
      4 C          67.8174   92.7100   14.9424 C.3     1  UNL1        0.0689
      5 C          66.9204   91.6193   15.4481 C.3     1  UNL1        0.0220
      6 C          65.6834   91.2507   14.6839 C.3     1  UNL1        0.0337
      7 H          67.3937   94.4207   13.9091 H       1  UNL1        0.1233
      8 C          64.7864   90.1600   15.1896 C.ar    1  UNL1       -0.0217
      9 C          64.8558   88.7901   14.5826 C.ar    1  UNL1       -0.0012
     10 C          63.9587   87.6994   15.0884 C.ar    1  UNL1        0.0366
     11 C          62.9924   87.9787   16.2011 C.ar    1  UNL1        0.1387
     12 C          62.9231   89.3486   16.8080 C.ar    1  UNL1        0.0366
     13 C          63.8201   90.4393   16.3023 C.ar    1  UNL1       -0.0012
     14 O          62.0954   86.8880   16.7068 O.3     1  UNL1       -0.4714
     15 C          62.6166   85.4874   16.8352 C.3     1  UNL1        0.2525
     16 C          62.0705   84.4004   15.9575 C.3     1  UNL1        0.2525
     17 O          62.9117   83.1999   15.6391 O.3     1  UNL1       -0.4697
     18 C          63.1607   82.8162   14.2106 C.ar    1  UNL1        0.1596
     19 C          64.2822   83.4556   13.4468 C.ar    1  UNL1        0.0921
     20 CL         65.1546   84.4788   14.1116 Cl      1  UNL1       -0.0791
     21 C          64.5312   83.0719   12.0183 C.ar    1  UNL1        0.0103
     22 C          63.6588   82.0487   11.3535 C.ar    1  UNL1       -0.0200
     23 C          63.9079   81.6650    9.9250 C.3     1  UNL1        0.0311
     24 C          62.5373   81.4092   12.1173 C.ar    1  UNL1        0.0103
     25 C          62.2882   81.7929   13.5458 C.ar    1  UNL1        0.0921
     26 CL         61.1668   81.1535   14.3096 Cl      1  UNL1       -0.0791
     27 N          64.0597   91.7934   11.1622 N.am    1  UNL1       -0.2770
     28 C          64.1066   91.6042   12.6495 C.2     1  UNL1        0.2270
     29 O          62.9165   91.0465   13.3725 O.2     1  UNL1       -0.2748
     30 C          65.2498   92.3511   10.4392 C.3     1  UNL1        0.0758
     31 C          65.9199   93.4854    9.7221 C.3     1  UNL1        0.0215
     32 C          66.6409   92.1827    9.9041 C.3     1  UNL1        0.0215
     33 C          62.8228   91.4248   10.3979 C.3     1  UNL1        0.1209
     34 C          62.0734   87.5401   10.7104 C.ar    1  UNL1       -0.0133
     35 C          60.6914   87.5641   11.2932 C.ar    1  UNL1       -0.0029
     36 C          60.0200   88.8749   11.5776 C.ar    1  UNL1        0.0108
     37 C          60.7304   90.1618   11.2792 C.ar    1  UNL1        0.0553
     38 CL         60.0590   91.4726   11.5636 Cl      1  UNL1       -0.0825
     39 C          62.1123   90.1379   10.6963 C.ar    1  UNL1        0.0080
     40 C          62.7838   88.8271   10.4119 C.ar    1  UNL1       -0.0056
     41 C          62.7448   86.2293   10.4260 C.3     1  UNL1        0.1113
     42 N          61.3545   85.9212    8.2529 N.am    1  UNL1       -0.3041
     43 C          62.5283   85.5461    9.1083 C.2     1  UNL1        0.2269
     44 O          63.4854   84.4877    8.6460 O.2     1  UNL1       -0.2747
     45 H          60.7263   86.6158    8.5563 H       1  UNL1        0.1494
     46 C          62.2738   84.5226    6.2657 C.3     1  UNL1        0.0230
     47 C          61.1380   85.2379    6.9352 C.3     1  UNL1        0.0895
@<TRIPOS>BOND
     1    46    47    1
     2    47    42    1
     3    42    43   am
     4    43    44    2
     5    43    41    1
     6    41    34    1
     7    34    35   ar
     8    35    36   ar
     9    36    37   ar
    10    37    38    1
    11    37    39   ar
    12    39    33    1
    13    33    27    1
    14    27    28   am
    15    28    29    2
    16     1    28    1
    17     1     2    1
    18     2     3    1
    19     3     4    1
    20     4     5    1
    21     5     6    1
    22     6     8    1
    23     8     9   ar
    24     9    10   ar
    25    10    11   ar
    26    11    14    1
    27    14    15    1
    28    15    16    1
    29    16    17    1
    30    17    18    1
    31    18    19   ar
    32    19    20    1
    33    19    21   ar
    34    21    22   ar
    35    22    23    1
    36    22    24   ar
    37    24    25   ar
    38    25    26    1
    39    11    12   ar
    40    12    13   ar
    41    27    30    1
    42    30    31    1
    43    31    32    1
    44    39    40   ar
    45    40    34   ar
    46     6     1    1
    47    13     8   ar
    48    32    30    1
    49    25    18   ar
    50    42    45    1
    51     3     7    1
@<TRIPOS>MOLECULE
*****
 47 51 0 0 0
SMALL
GASTEIGER

@<TRIPOS>ATOM
      1 C          63.8158   90.9119   13.6031 C.3     1  UNL1        0.0964
      2 C          64.2671   92.2013   12.9836 C.3     1  UNL1        0.0780
      3 N          65.5951   92.7893   13.3586 N.3     1  UNL1       -0.2970
      4 C          66.4719   92.0878   14.3531 C.3     1  UNL1        0.0689
      5 C          66.0206   90.7984   14.9727 C.3     1  UNL1        0.0220
      6 C          64.6926   90.2105   14.5976 C.3     1  UNL1        0.0337
      7 H          65.4099   93.7195   13.7338 H       1  UNL1        0.1233
      8 C          64.2414   88.9211   15.2172 C.ar    1  UNL1       -0.0217
      9 C          63.4384   88.9383   16.4840 C.ar    1  UNL1       -0.0012
     10 C          62.9871   87.6489   17.1036 C.ar    1  UNL1        0.0366
     11 C          63.3388   86.3423   16.4563 C.ar    1  UNL1        0.1387
     12 C          64.1418   86.3251   15.1894 C.ar    1  UNL1        0.0366
     13 C          64.5931   87.6145   14.5699 C.ar    1  UNL1       -0.0012
     14 O          62.8876   85.0529   17.0758 O.3     1  UNL1       -0.4714
     15 C          62.2905   83.9771   16.2179 C.3     1  UNL1        0.2525
     16 C          63.0705   83.4176   15.0653 C.3     1  UNL1        0.2525
     17 O          62.5696   83.5975   13.6629 O.3     1  UNL1       -0.4697
     18 C          62.6981   82.4792   12.6714 C.ar    1  UNL1        0.1596
     19 C          63.3109   82.7359   11.3266 C.ar    1  UNL1        0.0921
     20 CL         63.7953   84.1109   10.9733 Cl      1  UNL1       -0.0791
     21 C          63.4394   81.6177   10.3351 C.ar    1  UNL1        0.0103
     22 C          62.9550   80.2428   10.6884 C.ar    1  UNL1       -0.0200
     23 C          63.0834   79.1245    9.6969 C.3     1  UNL1        0.0311
     24 C          62.3420   79.9860   12.0332 C.ar    1  UNL1        0.0103
     25 C          62.2136   81.1042   13.0247 C.ar    1  UNL1        0.0921
     26 CL         61.6007   80.8476   14.3695 Cl      1  UNL1       -0.0791
     27 N          62.0472   90.3204   11.7942 N.am    1  UNL1       -0.2770
     28 C          62.4878   90.3240   13.2280 C.2     1  UNL1        0.2270
     29 O          61.6003   89.7398   14.2868 O.2     1  UNL1       -0.2748
     30 C          62.9346   90.9047   10.7354 C.3     1  UNL1        0.0758
     31 C          63.0990   91.5978    9.4154 C.3     1  UNL1        0.0215
     32 C          64.3073   91.2235   10.2216 C.3     1  UNL1        0.0215
     33 C          60.7191   89.7325   11.4192 C.3     1  UNL1        0.1209
     34 C          59.7280   88.1336    7.9247 C.ar    1  UNL1       -0.0133
     35 C          60.4340   86.8126    8.0070 C.ar    1  UNL1       -0.0029
     36 C          61.2350   86.4650    9.2266 C.ar    1  UNL1        0.0108
     37 C          61.3300   87.4383   10.3640 C.ar    1  UNL1        0.0553
     38 CL         62.1309   87.0907   11.5837 Cl      1  UNL1       -0.0825
     39 C          60.6241   88.7592   10.2818 C.ar    1  UNL1        0.0080
     40 C          59.8231   89.1069    9.0621 C.ar    1  UNL1       -0.0056
     41 C          58.9271   88.4812    6.7050 C.3     1  UNL1        0.1113
     42 N          57.8825   90.5637    5.5552 N.am    1  UNL1       -0.3041
     43 C          59.0870   89.8264    6.0610 C.2     1  UNL1        0.2269
     44 O          60.4512   90.4344    5.9229 O.2     1  UNL1       -0.2747
     45 H          56.9871   90.1646    5.6459 H       1  UNL1        0.1494
     46 C          59.1089   92.1242    3.8787 C.3     1  UNL1        0.0230
     47 C          58.0424   91.9090    4.9112 C.3     1  UNL1        0.0895
@<TRIPOS>BOND
     1    46    47    1
     2    47    42    1
     3    42    43   am
     4    43    44    2
     5    43    41    1
     6    41    34    1
     7    34    35   ar
     8    35    36   ar
     9    36    37   ar
    10    37    38    1
    11    37    39   ar
    12    39    33    1
    13    33    27    1
    14    27    28   am
    15    28    29    2
    16     1    28    1
    17     1     2    1
    18     2     3    1
    19     3     4    1
    20     4     5    1
    21     5     6    1
    22     6     8    1
    23     8     9   ar
    24     9    10   ar
    25    10    11   ar
    26    11    14    1
    27    14    15    1
    28    15    16    1
    29    16    17    1
    30    17    18    1
    31    18    19   ar
    32    19    20    1
    33    19    21   ar
    34    21    22   ar
    35    22    23    1
    36    22    24   ar
    37    24    25   ar
    38    25    26    1
    39    11    12   ar
    40    12    13   ar
    41    27    30    1
    42    30    31    1
    43    31    32    1
    44    39    40   ar
    45    40    34   ar
    46     6     1    1
    47    13     8   ar
    48    32    30    1
    49    25    18   ar
    50    42    45    1
    51     3     7    1
@<TRIPOS>MOLECULE
*****
 47 51 0 0 0
SMALL
GASTEIGER

@<TRIPOS>ATOM
      1 C          59.9890   87.9875    9.7841 C.3     1  UNL1        0.0964
      2 C          59.0390   87.2386    8.8972 C.3     1  UNL1        0.0780
      3 N          58.7869   87.7142    7.4971 N.3     1  UNL1       -0.2970
      4 C          59.4849   88.9387    6.9840 C.3     1  UNL1        0.0689
      5 C          60.4349   89.6876    7.8709 C.3     1  UNL1        0.0220
      6 C          60.6870   89.2120    9.2710 C.3     1  UNL1        0.0337
      7 H          57.7855   87.8931    7.4227 H       1  UNL1        0.1233
      8 C          61.6370   89.9609   10.1579 C.ar    1  UNL1       -0.0217
      9 C          61.5917   89.7607   11.6438 C.ar    1  UNL1       -0.0012
     10 C          62.5418   90.5097   12.5307 C.ar    1  UNL1        0.0366
     11 C          63.5370   91.4587   11.9317 C.ar    1  UNL1        0.1387
     12 C          63.5822   91.6589   10.4459 C.ar    1  UNL1        0.0366
     13 C          62.6322   90.9099    9.5589 C.ar    1  UNL1       -0.0012
     14 O          64.4870   92.2076   12.8187 O.3     1  UNL1       -0.4714
     15 C          65.9172   91.7684   12.9261 C.3     1  UNL1        0.2525
     16 C          66.9582   92.3790   12.0354 C.3     1  UNL1        0.2525
     17 O          67.1317   93.8685   11.9963 O.3     1  UNL1       -0.4697
     18 C          66.9228   94.6144   10.7118 C.ar    1  UNL1        0.1596
     19 C          66.3124   95.9845   10.7309 C.ar    1  UNL1        0.0921
     20 CL         65.9109   96.6085   12.0344 Cl      1  UNL1       -0.0791
     21 C          66.1035   96.7304    9.4464 C.ar    1  UNL1        0.0103
     22 C          66.5050   96.1063    8.1428 C.ar    1  UNL1       -0.0200
     23 C          66.2961   96.8523    6.8583 C.3     1  UNL1        0.0311
     24 C          67.1154   94.7363    8.1237 C.ar    1  UNL1        0.0103
     25 C          67.3244   93.9903    9.4082 C.ar    1  UNL1        0.0921
     26 CL         67.9348   92.6203    9.3891 Cl      1  UNL1       -0.0791
     27 N          61.3179   86.5023   11.4510 N.am    1  UNL1       -0.2770
     28 C          60.2410   87.5118   11.1843 C.2     1  UNL1        0.2270
     29 O          59.4161   88.0457   12.3176 O.2     1  UNL1       -0.2748
     30 C          62.1428   85.9684   10.3176 C.3     1  UNL1        0.0758
     31 C          62.9651   84.8680    9.7152 C.3     1  UNL1        0.0215
     32 C          62.7493   86.1441    8.9570 C.3     1  UNL1        0.0215
     33 C          61.5699   86.0266   12.8511 C.3     1  UNL1        0.1209
     34 C          64.1951   83.0772   13.2505 C.ar    1  UNL1       -0.0133
     35 C          65.3661   83.8162   13.8273 C.ar    1  UNL1       -0.0029
     36 C          65.2717   85.2919   14.0788 C.ar    1  UNL1        0.0108
     37 C          64.0063   86.0287   13.7534 C.ar    1  UNL1        0.0553
     38 CL         63.9118   87.5045   14.0048 Cl      1  UNL1       -0.0825
     39 C          62.8353   85.2898   13.1765 C.ar    1  UNL1        0.0080
     40 C          62.9297   83.8140   12.9251 C.ar    1  UNL1       -0.0056
     41 C          64.2895   81.6015   12.9990 C.3     1  UNL1        0.1113
     42 N          62.1428   80.7199   14.1671 N.am    1  UNL1       -0.3041
     43 C          63.0451   80.7645   12.9696 C.2     1  UNL1        0.2269
     44 O          62.7030   79.9722   11.7428 O.2     1  UNL1       -0.2747
     45 H          62.3673   81.2400   14.9723 H       1  UNL1        0.1494
     46 C          59.5508   80.5414   14.1628 C.3     1  UNL1        0.0230
     47 C          60.8983   79.8830   14.1376 C.3     1  UNL1        0.0895
@<TRIPOS>BOND
     1    46    47    1
     2    47    42    1
     3    42    43   am
     4    43    44    2
     5    43    41    1
     6    41    34    1
     7    34    35   ar
     8    35    36   ar
     9    36    37   ar
    10    37    38    1
    11    37    39   ar
    12    39    33    1
    13    33    27    1
    14    27    28   am
    15    28    29    2
    16     1    28    1
    17     1     2    1
    18     2     3    1
    19     3     4    1
    20     4     5    1
    21     5     6    1
    22     6     8    1
    23     8     9   ar
    24     9    10   ar
    25    10    11   ar
    26    11    14    1
    27    14    15    1
    28    15    16    1
    29    16    17    1
    30    17    18    1
    31    18    19   ar
    32    19    20    1
    33    19    21   ar
    34    21    22   ar
    35    22    23    1
    36    22    24   ar
    37    24    25   ar
    38    25    26    1
    39    11    12   ar
    40    12    13   ar
    41    27    30    1
    42    30    31    1
    43    31    32    1
    44    39    40   ar
    45    40    34   ar
    46     6     1    1
    47    13     8   ar
    48    32    30    1
    49    25    18   ar
    50    42    45    1
    51     3     7    1
@<TRIPOS>MOLECULE
*****
 47 51 0 0 0
SMALL
GASTEIGER

@<TRIPOS>ATOM
      1 C          62.6587   84.7842   12.7199 C.3     1  UNL1        0.0964
      2 C          62.3786   83.3264   12.9356 C.3     1  UNL1        0.0780
      3 N          62.6357   82.7036   14.2757 N.3     1  UNL1       -0.2970
      4 C          63.1728   83.5385   15.4001 C.3     1  UNL1        0.0689
      5 C          63.4528   84.9963   15.1844 C.3     1  UNL1        0.0220
      6 C          63.1958   85.6191   13.8443 C.3     1  UNL1        0.0337
      7 H          63.3033   81.9472   14.1256 H       1  UNL1        0.1233
      8 C          63.4759   87.0769   13.6286 C.ar    1  UNL1       -0.0217
      9 C          62.9265   87.7754   12.4202 C.ar    1  UNL1       -0.0012
     10 C          63.2065   89.2331   12.2046 C.ar    1  UNL1        0.0366
     11 C          64.0360   89.9924   13.1972 C.ar    1  UNL1        0.1387
     12 C          64.5854   89.2939   14.4056 C.ar    1  UNL1        0.0366
     13 C          64.3053   87.8361   14.6213 C.ar    1  UNL1       -0.0012
     14 O          64.3161   91.4501   12.9816 O.3     1  UNL1       -0.4714
     15 C          65.7009   91.9868   13.1913 C.3     1  UNL1        0.2525
     16 C          66.6033   92.2142   12.0149 C.3     1  UNL1        0.2525
     17 O          67.3098   93.5277   11.8544 O.3     1  UNL1       -0.4697
     18 C          67.0768   94.3597   10.6282 C.ar    1  UNL1        0.1596
     19 C          66.4287   95.7071   10.7481 C.ar    1  UNL1        0.0921
     20 CL         66.0135   96.2225   12.0942 Cl      1  UNL1       -0.0791
     21 C          66.1957   96.5391    9.5220 C.ar    1  UNL1        0.0103
     22 C          66.6109   96.0237    8.1759 C.ar    1  UNL1       -0.0200
     23 C          66.3779   96.8557    6.9497 C.3     1  UNL1        0.0311
     24 C          67.2591   94.6763    8.0559 C.ar    1  UNL1        0.0103
     25 C          67.4920   93.8443    9.2821 C.ar    1  UNL1        0.0921
     26 CL         68.1402   92.4969    9.1622 Cl      1  UNL1       -0.0791
     27 N          63.0464   84.8365   10.1514 N.am    1  UNL1       -0.2770
     28 C          62.4016   85.4070   11.3797 C.2     1  UNL1        0.2270
     29 O          61.4997   86.6004   11.2678 O.2     1  UNL1       -0.2748
     30 C          63.9483   83.6431   10.2633 C.3     1  UNL1        0.0758
     31 C          64.4783   82.3580    9.6997 C.3     1  UNL1        0.0215
     32 C          64.9805   82.8614   11.0205 C.3     1  UNL1        0.0215
     33 C          62.7894   85.4593    8.8112 C.3     1  UNL1        0.1209
     34 C          60.3584   88.5770    9.1581 C.ar    1  UNL1       -0.0133
     35 C          59.2474   88.1743    8.2340 C.ar    1  UNL1       -0.0029
     36 C          59.3172   86.8667    7.5025 C.ar    1  UNL1        0.0108
     37 C          60.4978   85.9617    7.6948 C.ar    1  UNL1        0.0553
     38 CL         60.5676   84.6541    6.9632 Cl      1  UNL1       -0.0825
     39 C          61.6087   86.3643    8.6188 C.ar    1  UNL1        0.0080
     40 C          61.5390   87.6720    9.3505 C.ar    1  UNL1       -0.0056
     41 C          60.2886   89.8846    9.8897 C.3     1  UNL1        0.1113
     42 N          59.3449   88.7860   12.0467 N.am    1  UNL1       -0.3041
     43 C          59.5073   89.9893   11.1658 C.2     1  UNL1        0.2269
     44 O          58.8884   91.2971   11.5612 O.2     1  UNL1       -0.2747
     45 H          59.7512   87.9275   11.7872 H       1  UNL1        0.1494
     46 C          57.1623   88.3600   13.3900 C.3     1  UNL1        0.0230
     47 C          58.5636   88.8906   13.3228 C.3     1  UNL1        0.0895
@<TRIPOS>BOND
     1    46    47    1
     2    47    42    1
     3    42    43   am
     4    43    44    2
     5    43    41    1
     6    41    34    1
     7    34    35   ar
     8    35    36   ar
     9    36    37   ar
    10    37    38    1
    11    37    39   ar
    12    39    33    1
    13    33    27    1
    14    27    28   am
    15    28    29    2
    16     1    28    1
    17     1     2    1
    18     2     3    1
    19     3     4    1
    20     4     5    1
    21     5     6    1
    22     6     8    1
    23     8     9   ar
    24     9    10   ar
    25    10    11   ar
    26    11    14    1
    27    14    15    1
    28    15    16    1
    29    16    17    1
    30    17    18    1
    31    18    19   ar
    32    19    20    1
    33    19    21   ar
    34    21    22   ar
    35    22    23    1
    36    22    24   ar
    37    24    25   ar
    38    25    26    1
    39    11    12   ar
    40    12    13   ar
    41    27    30    1
    42    30    31    1
    43    31    32    1
    44    39    40   ar
    45    40    34   ar
    46     6     1    1
    47    13     8   ar
    48    32    30    1
    49    25    18   ar
    50    42    45    1
    51     3     7    1
@<TRIPOS>MOLECULE
*****
 47 51 0 0 0
SMALL
GASTEIGER

@<TRIPOS>ATOM
      1 C          60.2612   88.0694    9.2626 C.3     1  UNL1        0.0964
      2 C          59.3297   87.7118    8.1426 C.3     1  UNL1        0.0780
      3 N          59.2224   88.6048    6.9422 N.3     1  UNL1       -0.2970
      4 C          60.0467   89.8554    6.8618 C.3     1  UNL1        0.0689
      5 C          60.9782   90.2131    7.9818 C.3     1  UNL1        0.0220
      6 C          61.0855   89.3201    9.1822 C.3     1  UNL1        0.0337
      7 H          58.2458   88.8910    6.8744 H       1  UNL1        0.1233
      8 C          62.0170   89.6777   10.3022 C.ar    1  UNL1       -0.0217
      9 C          62.4504   91.1011   10.4916 C.ar    1  UNL1       -0.0012
     10 C          63.3819   91.4587   11.6116 C.ar    1  UNL1        0.0366
     11 C          63.8800   90.3930   12.5422 C.ar    1  UNL1        0.1387
     12 C          63.4465   88.9695   12.3528 C.ar    1  UNL1        0.0366
     13 C          62.5150   88.6119   11.2328 C.ar    1  UNL1       -0.0012
     14 O          64.8115   90.7506   13.6622 O.3     1  UNL1       -0.4714
     15 C          65.8979   91.7607   13.4405 C.3     1  UNL1        0.2525
     16 C          65.6916   92.8826   12.4665 C.3     1  UNL1        0.2525
     17 O          66.8211   93.8170   12.1484 O.3     1  UNL1       -0.4697
     18 C          66.8245   94.5766   10.8550 C.ar    1  UNL1        0.1596
     19 C          66.4025   96.0158   10.8293 C.ar    1  UNL1        0.0921
     20 CL         65.9772   96.6953   12.0971 Cl      1  UNL1       -0.0791
     21 C          66.4059   96.7754    9.5359 C.ar    1  UNL1        0.0103
     22 C          66.8312   96.0959    8.2681 C.ar    1  UNL1       -0.0200
     23 C          66.8346   96.8555    6.9747 C.3     1  UNL1        0.0311
     24 C          67.2532   94.6567    8.2937 C.ar    1  UNL1        0.0103
     25 C          67.2499   93.8970    9.5871 C.ar    1  UNL1        0.0921
     26 CL         67.6718   92.4579    9.6128 Cl      1  UNL1       -0.0791
     27 N          61.2215   85.9439   10.4071 N.am    1  UNL1       -0.2770
     28 C          60.3684   87.1764   10.4631 C.2     1  UNL1        0.2270
     29 O          59.6226   87.5159   11.7194 O.2     1  UNL1       -0.2748
     30 C          61.9674   85.6044    9.1508 C.3     1  UNL1        0.0758
     31 C          63.2041   85.0951    8.4717 C.3     1  UNL1        0.0215
     32 C          62.0226   85.5257    7.6539 C.3     1  UNL1        0.0215
     33 C          61.3288   85.0508   11.6076 C.3     1  UNL1        0.1209
     34 C          64.5098   85.4249   13.9509 C.ar    1  UNL1       -0.0133
     35 C          65.3456   84.2715   13.4804 C.ar    1  UNL1       -0.0029
     36 C          64.8425   83.3780   12.3857 C.ar    1  UNL1        0.0108
     37 C          63.5035   83.6378   11.7615 C.ar    1  UNL1        0.0553
     38 CL         63.0004   82.7442   10.6668 Cl      1  UNL1       -0.0825
     39 C          62.6677   84.7910   12.2319 C.ar    1  UNL1        0.0080
     40 C          63.1709   85.6847   13.3266 C.ar    1  UNL1       -0.0056
     41 C          65.0130   86.3184   15.0456 C.3     1  UNL1        0.1113
     42 N          64.0959   88.6665   15.6746 N.am    1  UNL1       -0.3041
     43 C          64.0520   87.1738   15.8168 C.2     1  UNL1        0.2269
     44 O          63.0471   86.5367   16.7301 O.2     1  UNL1       -0.2747
     45 H          64.7554   89.0847   15.0751 H       1  UNL1        0.1494
     46 C          63.3250   91.0091   16.4919 C.3     1  UNL1        0.0230
     47 C          63.1349   89.5219   16.4458 C.3     1  UNL1        0.0895
@<TRIPOS>BOND
     1    46    47    1
     2    47    42    1
     3    42    43   am
     4    43    44    2
     5    43    41    1
     6    41    34    1
     7    34    35   ar
     8    35    36   ar
     9    36    37   ar
    10    37    38    1
    11    37    39   ar
    12    39    33    1
    13    33    27    1
    14    27    28   am
    15    28    29    2
    16     1    28    1
    17     1     2    1
    18     2     3    1
    19     3     4    1
    20     4     5    1
    21     5     6    1
    22     6     8    1
    23     8     9   ar
    24     9    10   ar
    25    10    11   ar
    26    11    14    1
    27    14    15    1
    28    15    16    1
    29    16    17    1
    30    17    18    1
    31    18    19   ar
    32    19    20    1
    33    19    21   ar
    34    21    22   ar
    35    22    23    1
    36    22    24   ar
    37    24    25   ar
    38    25    26    1
    39    11    12   ar
    40    12    13   ar
    41    27    30    1
    42    30    31    1
    43    31    32    1
    44    39    40   ar
    45    40    34   ar
    46     6     1    1
    47    13     8   ar
    48    32    30    1
    49    25    18   ar
    50    42    45    1
    51     3     7    1
