@<TRIPOS>MOLECULE
*****
 28 30 0 0 0
SMALL
GASTEIGER

@<TRIPOS>ATOM
      1 C          65.8352   91.7478   13.8086 C.3     1  UNL1        0.0542
      2 C          65.3772   91.4305   15.2012 C.3     1  UNL1        0.0090
      3 C          64.1524   90.5913   15.4150 C.3     1  UNL1        0.0220
      4 C          63.3857   90.0694   14.2361 C.3     1  UNL1        0.0950
      5 N          63.8437   90.3868   12.8435 N.am    1  UNL1       -0.2636
      6 C          63.0769   89.8649   11.6646 C.2     1  UNL1        0.3077
      7 O          63.5350   90.1823   10.2720 O.2     1  UNL1       -0.2522
      8 N          61.8521   89.0257   11.8784 N.am    1  UNL1       -0.2681
      9 C          65.0684   91.2260   12.6297 C.3     1  UNL1        0.1004
     10 H          61.5515   88.8174   12.7924 H       1  UNL1        0.1564
     11 C          61.0855   88.5039   10.6995 C.ar    1  UNL1        0.0516
     12 C          60.4065   89.4598    9.7638 C.ar    1  UNL1        0.0156
     13 C          59.6398   88.9381    8.5849 C.ar    1  UNL1        0.0127
     14 C          59.5520   87.4605    8.3416 C.ar    1  UNL1        0.0578
     15 CL         58.7853   86.9387    7.1626 Cl      1  UNL1       -0.0822
     16 C          60.2310   86.5047    9.2772 C.ar    1  UNL1        0.0127
     17 C          60.9977   87.0264   10.4562 C.ar    1  UNL1        0.0156
     18 C          66.8880   92.4666   14.5992 C.ar    1  UNL1        0.0599
     19 C          67.8412   91.6903   15.4587 C.ar    1  UNL1        0.0148
     20 C          68.8939   92.4091   16.2492 C.ar    1  UNL1        0.0028
     21 C          68.9936   93.9042   16.1802 C.ar    1  UNL1        0.0207
     22 C          68.0405   94.6805   15.3206 C.ar    1  UNL1        0.0984
     23 N          66.9877   93.9617   14.5301 N.ar    1  UNL1       -0.2481
     24 C          66.6588   92.3148   12.6905 C.3     1  UNL1        0.0131
     25 C          65.9985   92.7347   11.4108 C.3     1  UNL1        0.0421
     26 O          67.8434   94.0708   10.1613 O.co2   1  UNL1       -0.5492
     27 C          66.4494   93.9807   10.7078 C.2     1  UNL1        0.0503
     28 O          65.5062   95.1365   10.5514 O.co2   1  UNL1       -0.5492
@<TRIPOS>UNITY_ATOM_ATTR
26 1
charge -1
@<TRIPOS>BOND
     1    26    27   ar
     2    27    28   ar
     3    27    25    1
     4    25    24    1
     5    24     1    1
     6     1    18    1
     7    18    19   ar
     8    19    20   ar
     9    20    21   ar
    10    21    22   ar
    11    22    23   ar
    12     1     2    1
    13     2     3    1
    14     3     4    1
    15     4     5    1
    16     5     6   am
    17     6     7    2
    18     6     8   am
    19     8    11    1
    20    11    12   ar
    21    12    13   ar
    22    13    14   ar
    23    14    15    1
    24    14    16   ar
    25    16    17   ar
    26     5     9    1
    27     9     1    1
    28    23    18   ar
    29    17    11   ar
    30     8    10    1
@<TRIPOS>MOLECULE
*****
 28 30 0 0 0
SMALL
GASTEIGER

@<TRIPOS>ATOM
      1 C          63.9555   88.1244   14.6699 C.3     1  UNL1        0.0542
      2 C          63.8336   87.8844   16.1455 C.3     1  UNL1        0.0090
      3 C          63.5797   86.4991   16.6616 C.3     1  UNL1        0.0220
      4 C          63.4477   85.3537   15.7020 C.3     1  UNL1        0.0950
      5 N          63.5695   85.5937   14.2264 N.am    1  UNL1       -0.2636
      6 C          63.4375   84.4483   13.2668 C.2     1  UNL1        0.3077
      7 O          63.5594   84.6884   11.7911 O.2     1  UNL1       -0.2522
      8 N          63.1836   83.0630   13.7829 N.am    1  UNL1       -0.2681
      9 C          63.8234   86.9790   13.7103 C.3     1  UNL1        0.1004
     10 H          63.1036   82.9055   14.7514 H       1  UNL1        0.1564
     11 C          63.0515   81.9177   12.8233 C.ar    1  UNL1        0.0516
     12 C          62.5783   80.5807   13.3118 C.ar    1  UNL1        0.0156
     13 C          62.4463   79.4355   12.3523 C.ar    1  UNL1        0.0127
     14 C          62.7874   79.6270   10.9042 C.ar    1  UNL1        0.0578
     15 CL         62.6554   78.4817    9.9446 Cl      1  UNL1       -0.0822
     16 C          63.2606   80.9640   10.4156 C.ar    1  UNL1        0.0127
     17 C          63.3926   82.1093   11.3752 C.ar    1  UNL1        0.0156
     18 C          64.1538   89.5217   15.1782 C.ar    1  UNL1        0.0599
     19 C          65.2271   90.3886   14.5898 C.ar    1  UNL1        0.0148
     20 C          65.4253   91.7858   15.0982 C.ar    1  UNL1        0.0028
     21 C          64.5502   92.3160   16.1950 C.ar    1  UNL1        0.0207
     22 C          63.4769   91.4491   16.7835 C.ar    1  UNL1        0.0984
     23 N          63.2787   90.0519   16.2751 N.ar    1  UNL1       -0.2481
     24 C          64.1462   88.8497   13.3707 C.3     1  UNL1        0.0131
     25 C          63.1809   88.6347   12.2430 C.3     1  UNL1        0.0421
     26 O          62.4197   90.7977   11.0216 O.co2   1  UNL1       -0.5492
     27 C          62.1250   89.6602   11.9538 C.2     1  UNL1        0.0503
     28 O          60.7745   89.5480   12.5969 O.co2   1  UNL1       -0.5492
@<TRIPOS>UNITY_ATOM_ATTR
26 1
charge -1
@<TRIPOS>BOND
     1    26    27   ar
     2    27    28   ar
     3    27    25    1
     4    25    24    1
     5    24     1    1
     6     1    18    1
     7    18    19   ar
     8    19    20   ar
     9    20    21   ar
    10    21    22   ar
    11    22    23   ar
    12     1     2    1
    13     2     3    1
    14     3     4    1
    15     4     5    1
    16     5     6   am
    17     6     7    2
    18     6     8   am
    19     8    11    1
    20    11    12   ar
    21    12    13   ar
    22    13    14   ar
    23    14    15    1
    24    14    16   ar
    25    16    17   ar
    26     5     9    1
    27     9     1    1
    28    23    18   ar
    29    17    11   ar
    30     8    10    1
@<TRIPOS>MOLECULE
*****
 28 30 0 0 0
SMALL
GASTEIGER

@<TRIPOS>ATOM
      1 C          63.3535   83.3302   12.2937 C.3     1  UNL1        0.0542
      2 C          62.5523   83.6114   11.0573 C.3     1  UNL1        0.0090
      3 C          62.1933   85.0236   10.7012 C.3     1  UNL1        0.0220
      4 C          62.6356   86.1547   11.5817 C.3     1  UNL1        0.0950
      5 N          63.4368   85.8735   12.8182 N.am    1  UNL1       -0.2636
      6 C          63.8791   87.0045   13.6987 C.2     1  UNL1        0.3077
      7 O          64.6803   86.7232   14.9352 O.2     1  UNL1       -0.2522
      8 N          63.5201   88.4167   13.3427 N.am    1  UNL1       -0.2681
      9 C          63.7958   84.4612   13.1742 C.3     1  UNL1        0.1004
     10 H          62.9942   88.6013   12.5311 H       1  UNL1        0.1564
     11 C          63.9624   89.5476   14.2232 C.ar    1  UNL1        0.0516
     12 C          63.3380   89.7346   15.5743 C.ar    1  UNL1        0.0156
     13 C          63.7802   90.8654   16.4548 C.ar    1  UNL1        0.0127
     14 C          64.8469   91.8094   15.9844 C.ar    1  UNL1        0.0578
     15 CL         65.2891   92.9404   16.8650 Cl      1  UNL1       -0.0822
     16 C          65.4712   91.6225   14.6334 C.ar    1  UNL1        0.0127
     17 C          65.0290   90.4915   13.7528 C.ar    1  UNL1        0.0156
     18 C          63.1671   81.9330   11.7808 C.ar    1  UNL1        0.0599
     19 C          63.3806   81.6331   10.3267 C.ar    1  UNL1        0.0148
     20 C          63.1942   80.2359    9.8139 C.ar    1  UNL1        0.0028
     21 C          62.7941   79.1386   10.7551 C.ar    1  UNL1        0.0207
     22 C          62.5805   79.4385   12.2092 C.ar    1  UNL1        0.0984
     23 N          62.7670   80.8357   12.7221 N.ar    1  UNL1       -0.2481
     24 C          64.0900   82.5637   13.3521 C.3     1  UNL1        0.0131
     25 C          63.9330   82.9388   14.7959 C.3     1  UNL1        0.0421
     26 O          61.4036   82.3686   14.9605 O.co2   1  UNL1       -0.5492
     27 C          62.5700   83.2267   15.3521 C.2     1  UNL1        0.0503
     28 O          62.3735   84.3726   16.2998 O.co2   1  UNL1       -0.5492
@<TRIPOS>UNITY_ATOM_ATTR
26 1
charge -1
@<TRIPOS>BOND
     1    26    27   ar
     2    27    28   ar
     3    27    25    1
     4    25    24    1
     5    24     1    1
     6     1    18    1
     7    18    19   ar
     8    19    20   ar
     9    20    21   ar
    10    21    22   ar
    11    22    23   ar
    12     1     2    1
    13     2     3    1
    14     3     4    1
    15     4     5    1
    16     5     6   am
    17     6     7    2
    18     6     8   am
    19     8    11    1
    20    11    12   ar
    21    12    13   ar
    22    13    14   ar
    23    14    15    1
    24    14    16   ar
    25    16    17   ar
    26     5     9    1
    27     9     1    1
    28    23    18   ar
    29    17    11   ar
    30     8    10    1
@<TRIPOS>MOLECULE
*****
 28 30 0 0 0
SMALL
GASTEIGER

@<TRIPOS>ATOM
      1 C          63.0331   84.4538   13.3129 C.3     1  UNL1        0.0542
      2 C          62.1647   84.4367   12.0900 C.3     1  UNL1        0.0090
      3 C          61.9670   85.6918   11.2929 C.3     1  UNL1        0.0220
      4 C          62.6379   86.9641   11.7186 C.3     1  UNL1        0.0950
      5 N          63.5063   86.9813   12.9415 N.am    1  UNL1       -0.2636
      6 C          64.1772   88.2536   13.3672 C.2     1  UNL1        0.3077
      7 O          65.0456   88.2707   14.5901 O.2     1  UNL1       -0.2522
      8 N          63.9795   89.5088   12.5701 N.am    1  UNL1       -0.2681
      9 C          63.7040   85.7261   13.7386 C.3     1  UNL1        0.1004
     10 H          63.4095   89.4976   11.7674 H       1  UNL1        0.1564
     11 C          64.6503   90.7810   12.9959 C.ar    1  UNL1        0.0516
     12 C          65.0051   90.9957   14.4375 C.ar    1  UNL1        0.0156
     13 C          65.6759   92.2678   14.8633 C.ar    1  UNL1        0.0127
     14 C          65.9920   93.3255   13.8477 C.ar    1  UNL1        0.0578
     15 CL         66.6629   94.5977   14.2735 Cl      1  UNL1       -0.0822
     16 C          65.6373   93.1108   12.4061 C.ar    1  UNL1        0.0127
     17 C          64.9665   91.8386   11.9802 C.ar    1  UNL1        0.0156
     18 C          62.6133   83.0137   13.3117 C.ar    1  UNL1        0.0599
     19 C          63.1521   82.0762   12.2722 C.ar    1  UNL1        0.0148
     20 C          62.7323   80.6362   12.2711 C.ar    1  UNL1        0.0028
     21 C          61.7736   80.1337   13.3095 C.ar    1  UNL1        0.0207
     22 C          61.2348   81.0712   14.3491 C.ar    1  UNL1        0.0984
     23 N          61.6546   82.5112   14.3502 N.ar    1  UNL1       -0.2481
     24 C          63.7558   83.9708   14.5354 C.3     1  UNL1        0.0131
     25 C          64.0216   84.9138   15.6712 C.3     1  UNL1        0.0421
     26 O          61.4718   85.0595   16.1481 O.co2   1  UNL1       -0.5492
     27 C          62.8817   85.4370   16.4940 C.2     1  UNL1        0.0503
     28 O          63.1518   86.3377   17.6627 O.co2   1  UNL1       -0.5492
@<TRIPOS>UNITY_ATOM_ATTR
26 1
charge -1
@<TRIPOS>BOND
     1    26    27   ar
     2    27    28   ar
     3    27    25    1
     4    25    24    1
     5    24     1    1
     6     1    18    1
     7    18    19   ar
     8    19    20   ar
     9    20    21   ar
    10    21    22   ar
    11    22    23   ar
    12     1     2    1
    13     2     3    1
    14     3     4    1
    15     4     5    1
    16     5     6   am
    17     6     7    2
    18     6     8   am
    19     8    11    1
    20    11    12   ar
    21    12    13   ar
    22    13    14   ar
    23    14    15    1
    24    14    16   ar
    25    16    17   ar
    26     5     9    1
    27     9     1    1
    28    23    18   ar
    29    17    11   ar
    30     8    10    1
@<TRIPOS>MOLECULE
*****
 28 30 0 0 0
SMALL
GASTEIGER

@<TRIPOS>ATOM
      1 C          61.8974   88.6848   10.2919 C.3     1  UNL1        0.0542
      2 C          61.6480   89.7458    9.2614 C.3     1  UNL1        0.0090
      3 C          62.3631   91.0612    9.3510 C.3     1  UNL1        0.0220
      4 C          63.3277   91.3157   10.4713 C.3     1  UNL1        0.0950
      5 N          63.5771   90.2547   11.5018 N.am    1  UNL1       -0.2636
      6 C          64.5416   90.5092   12.6221 C.2     1  UNL1        0.3077
      7 O          64.7910   89.4482   13.6526 O.2     1  UNL1       -0.2522
      8 N          65.2568   91.8247   12.7117 N.am    1  UNL1       -0.2681
      9 C          62.8619   88.9393   11.4122 C.3     1  UNL1        0.1004
     10 H          65.0931   92.5211   12.0353 H       1  UNL1        0.1564
     11 C          66.2213   92.0791   13.8319 C.ar    1  UNL1        0.0516
     12 C          65.7090   92.4311   15.1972 C.ar    1  UNL1        0.0156
     13 C          66.6734   92.6854   16.3175 C.ar    1  UNL1        0.0127
     14 C          68.1502   92.5879   16.0726 C.ar    1  UNL1        0.0578
     15 CL         69.1146   92.8424   17.1929 Cl      1  UNL1       -0.0822
     16 C          68.6624   92.2360   14.7074 C.ar    1  UNL1        0.0127
     17 C          67.6979   91.9816   13.5871 C.ar    1  UNL1        0.0156
     18 C          60.8990   87.9763    9.4250 C.ar    1  UNL1        0.0599
     19 C          61.1662   86.5736    8.9659 C.ar    1  UNL1        0.0148
     20 C          60.1678   85.8652    8.0990 C.ar    1  UNL1        0.0028
     21 C          58.9023   86.5596    7.6914 C.ar    1  UNL1        0.0207
     22 C          58.6351   87.9623    8.1505 C.ar    1  UNL1        0.0984
     23 N          59.6334   88.6707    9.0173 N.ar    1  UNL1       -0.2481
     24 C          61.8000   87.3777   11.0214 C.3     1  UNL1        0.0131
     25 C          62.9178   86.9342   11.9180 C.3     1  UNL1        0.0421
     26 O          62.9156   84.3818   11.4329 O.co2   1  UNL1       -0.5492
     27 C          62.9672   85.5182   12.4106 C.2     1  UNL1        0.0503
     28 O          63.0684   85.2388   13.8809 O.co2   1  UNL1       -0.5492
@<TRIPOS>UNITY_ATOM_ATTR
26 1
charge -1
@<TRIPOS>BOND
     1    26    27   ar
     2    27    28   ar
     3    27    25    1
     4    25    24    1
     5    24     1    1
     6     1    18    1
     7    18    19   ar
     8    19    20   ar
     9    20    21   ar
    10    21    22   ar
    11    22    23   ar
    12     1     2    1
    13     2     3    1
    14     3     4    1
    15     4     5    1
    16     5     6   am
    17     6     7    2
    18     6     8   am
    19     8    11    1
    20    11    12   ar
    21    12    13   ar
    22    13    14   ar
    23    14    15    1
    24    14    16   ar
    25    16    17   ar
    26     5     9    1
    27     9     1    1
    28    23    18   ar
    29    17    11   ar
    30     8    10    1
@<TRIPOS>MOLECULE
*****
 28 30 0 0 0
SMALL
GASTEIGER

@<TRIPOS>ATOM
      1 C          64.0304   95.1946   -3.6273 C.3     1  UNL1        0.0542
      2 C          65.0086   96.2207   -3.1374 C.3     1  UNL1        0.0090
      3 C          65.2011   96.4303   -1.6646 C.3     1  UNL1        0.0220
      4 C          64.4154   95.6137   -0.6818 C.3     1  UNL1        0.0950
      5 N          63.4372   94.5875   -1.1718 N.am    1  UNL1       -0.2636
      6 C          62.6515   93.7709   -0.1890 C.2     1  UNL1        0.3077
      7 O          61.6733   92.7448   -0.6790 O.2     1  UNL1       -0.2522
      8 N          62.8440   93.9805    1.2838 N.am    1  UNL1       -0.2681
      9 C          63.2447   94.3780   -2.6445 C.3     1  UNL1        0.1004
     10 H          63.4860   94.6540    1.6054 H       1  UNL1        0.1564
     11 C          62.0583   93.1639    2.2665 C.ar    1  UNL1        0.0516
     12 C          60.6247   93.5043    2.5478 C.ar    1  UNL1        0.0156
     13 C          59.8389   92.6878    3.5305 C.ar    1  UNL1        0.0127
     14 C          60.4866   91.5307    4.2318 C.ar    1  UNL1        0.0578
     15 CL         59.7008   90.7141    5.2146 Cl      1  UNL1       -0.0822
     16 C          61.9201   91.1903    3.9505 C.ar    1  UNL1        0.0127
     17 C          62.7060   92.0069    2.9678 C.ar    1  UNL1        0.0156
     18 C          64.5375   95.7179   -4.9384 C.ar    1  UNL1        0.0599
     19 C          66.0135   95.8321   -5.1800 C.ar    1  UNL1        0.0148
     20 C          66.5206   96.3554   -6.4911 C.ar    1  UNL1        0.0028
     21 C          65.5517   96.7645   -7.5606 C.ar    1  UNL1        0.0207
     22 C          64.0757   96.6504   -7.3190 C.ar    1  UNL1        0.0984
     23 N          63.5686   96.1271   -6.0079 N.ar    1  UNL1       -0.2481
     24 C          63.2283   94.3501   -4.5726 C.3     1  UNL1        0.0131
     25 C          63.4898   92.8762   -4.6680 C.3     1  UNL1        0.0421
     26 O          64.0569   91.9830   -7.0409 O.co2   1  UNL1       -0.5492
     27 C          64.4923   92.3546   -5.6545 C.2     1  UNL1        0.0503
     28 O          65.9301   92.2048   -5.2543 O.co2   1  UNL1       -0.5492
@<TRIPOS>UNITY_ATOM_ATTR
26 1
charge -1
@<TRIPOS>BOND
     1    26    27   ar
     2    27    28   ar
     3    27    25    1
     4    25    24    1
     5    24     1    1
     6     1    18    1
     7    18    19   ar
     8    19    20   ar
     9    20    21   ar
    10    21    22   ar
    11    22    23   ar
    12     1     2    1
    13     2     3    1
    14     3     4    1
    15     4     5    1
    16     5     6   am
    17     6     7    2
    18     6     8   am
    19     8    11    1
    20    11    12   ar
    21    12    13   ar
    22    13    14   ar
    23    14    15    1
    24    14    16   ar
    25    16    17   ar
    26     5     9    1
    27     9     1    1
    28    23    18   ar
    29    17    11   ar
    30     8    10    1
@<TRIPOS>MOLECULE
*****
 28 30 0 0 0
SMALL
GASTEIGER

@<TRIPOS>ATOM
      1 C          63.8312   94.4738   -2.9234 C.3     1  UNL1        0.0542
      2 C          64.8781   95.4129   -2.4020 C.3     1  UNL1        0.0090
      3 C          65.0294   95.6217   -0.9243 C.3     1  UNL1        0.0220
      4 C          64.1337   94.8914    0.0319 C.3     1  UNL1        0.0950
      5 N          63.0867   93.9523   -0.4895 N.am    1  UNL1       -0.2636
      6 C          62.1909   93.2220    0.4668 C.2     1  UNL1        0.3077
      7 O          61.1440   92.2830   -0.0548 O.2     1  UNL1       -0.2522
      8 N          62.3422   93.4308    1.9444 N.am    1  UNL1       -0.2681
      9 C          62.9354   93.7435   -1.9671 C.3     1  UNL1        0.1004
     10 H          63.0294   94.0472    2.2867 H       1  UNL1        0.1564
     11 C          61.4465   92.7005    2.9006 C.ar    1  UNL1        0.0516
     12 C          61.9936   91.5789    3.7329 C.ar    1  UNL1        0.0156
     13 C          61.0979   90.8486    4.6890 C.ar    1  UNL1        0.0127
     14 C          59.6551   91.2398    4.8129 C.ar    1  UNL1        0.0578
     15 CL         58.7594   90.5094    5.7691 Cl      1  UNL1       -0.0822
     16 C          59.1080   92.3614    3.9806 C.ar    1  UNL1        0.0127
     17 C          60.0038   93.0917    3.0244 C.ar    1  UNL1        0.0156
     18 C          64.4362   94.9334   -4.2168 C.ar    1  UNL1        0.0599
     19 C          64.9933   93.9299   -5.1825 C.ar    1  UNL1        0.0148
     20 C          65.5983   94.3895   -6.4758 C.ar    1  UNL1        0.0028
     21 C          65.6463   95.8526   -6.8033 C.ar    1  UNL1        0.0207
     22 C          65.0893   96.8560   -5.8376 C.ar    1  UNL1        0.0984
     23 N          64.4843   96.3964   -4.5443 N.ar    1  UNL1       -0.2481
     24 C          62.9943   93.6943   -3.8940 C.3     1  UNL1        0.0131
     25 C          61.5047   93.8702   -3.9101 C.3     1  UNL1        0.0421
     26 O          61.6811   95.1606   -6.1581 O.co2   1  UNL1       -0.5492
     27 C          60.8492   94.6122   -5.0369 C.2     1  UNL1        0.0503
     28 O          59.3618   94.8058   -5.0424 O.co2   1  UNL1       -0.5492
@<TRIPOS>UNITY_ATOM_ATTR
26 1
charge -1
@<TRIPOS>BOND
     1    26    27   ar
     2    27    28   ar
     3    27    25    1
     4    25    24    1
     5    24     1    1
     6     1    18    1
     7    18    19   ar
     8    19    20   ar
     9    20    21   ar
    10    21    22   ar
    11    22    23   ar
    12     1     2    1
    13     2     3    1
    14     3     4    1
    15     4     5    1
    16     5     6   am
    17     6     7    2
    18     6     8   am
    19     8    11    1
    20    11    12   ar
    21    12    13   ar
    22    13    14   ar
    23    14    15    1
    24    14    16   ar
    25    16    17   ar
    26     5     9    1
    27     9     1    1
    28    23    18   ar
    29    17    11   ar
    30     8    10    1
@<TRIPOS>MOLECULE
*****
 28 30 0 0 0
SMALL
GASTEIGER

@<TRIPOS>ATOM
      1 C          61.0000   94.7417   -0.2752 C.3     1  UNL1        0.0542
      2 C          61.7619   95.8715   -0.9021 C.3     1  UNL1        0.0090
      3 C          61.0530   96.8556   -1.7847 C.3     1  UNL1        0.0220
      4 C          59.5821   96.7098   -2.0405 C.3     1  UNL1        0.0950
      5 N          58.8202   95.5801   -1.4136 N.am    1  UNL1       -0.2636
      6 C          57.3494   95.4343   -1.6694 C.2     1  UNL1        0.3077
      7 O          56.5875   94.3044   -1.0425 O.2     1  UNL1       -0.2522
      8 N          56.6405   96.4184   -2.5521 N.am    1  UNL1       -0.2681
      9 C          59.5291   94.5960   -0.5310 C.3     1  UNL1        0.1004
     10 H          57.1405   97.1599   -2.9635 H       1  UNL1        0.1564
     11 C          55.1697   96.2726   -2.8078 C.ar    1  UNL1        0.0516
     12 C          54.2166   96.1506   -1.6558 C.ar    1  UNL1        0.0156
     13 C          52.7459   96.0048   -1.9114 C.ar    1  UNL1        0.0127
     14 C          52.2280   95.9809   -3.3190 C.ar    1  UNL1        0.0578
     15 CL         50.7571   95.8351   -3.5747 Cl      1  UNL1       -0.0822
     16 C          53.1809   96.1029   -4.4710 C.ar    1  UNL1        0.0127
     17 C          54.6518   96.2487   -4.2153 C.ar    1  UNL1        0.0156
     18 C          62.3717   94.4612    0.2632 C.ar    1  UNL1        0.0599
     19 C          63.2896   93.5296   -0.4712 C.ar    1  UNL1        0.0148
     20 C          64.6612   93.2491    0.0673 C.ar    1  UNL1        0.0028
     21 C          65.1149   93.9003    1.3402 C.ar    1  UNL1        0.0207
     22 C          64.1969   94.8320    2.0745 C.ar    1  UNL1        0.0984
     23 N          62.8253   95.1124    1.5361 N.ar    1  UNL1       -0.2481
     24 C          60.7144   93.5145    0.5386 C.3     1  UNL1        0.0131
     25 C          59.8009   93.5974    1.7255 C.3     1  UNL1        0.0421
     26 O          59.1209   92.7054    4.0689 O.co2   1  UNL1       -0.5492
     27 C          60.1531   92.8795    2.9946 C.2     1  UNL1        0.0503
     28 O          61.5375   92.3359    3.1893 O.co2   1  UNL1       -0.5492
@<TRIPOS>UNITY_ATOM_ATTR
26 1
charge -1
@<TRIPOS>BOND
     1    26    27   ar
     2    27    28   ar
     3    27    25    1
     4    25    24    1
     5    24     1    1
     6     1    18    1
     7    18    19   ar
     8    19    20   ar
     9    20    21   ar
    10    21    22   ar
    11    22    23   ar
    12     1     2    1
    13     2     3    1
    14     3     4    1
    15     4     5    1
    16     5     6   am
    17     6     7    2
    18     6     8   am
    19     8    11    1
    20    11    12   ar
    21    12    13   ar
    22    13    14   ar
    23    14    15    1
    24    14    16   ar
    25    16    17   ar
    26     5     9    1
    27     9     1    1
    28    23    18   ar
    29    17    11   ar
    30     8    10    1
