@<TRIPOS>MOLECULE
*****
 36 42 0 0 0
SMALL
GASTEIGER

@<TRIPOS>ATOM
      1 C          62.8366   85.7567   12.9226 C.ar    1  UNL1        0.1506
      2 N          62.0237   86.2745   11.7732 N.ar    1  UNL1       -0.2148
      3 C          62.0944   87.7250   11.3980 C.ar    1  UNL1        0.1406
      4 C          62.9778   88.6578   12.1722 C.ar    1  UNL1        0.0784
      5 S          63.2505   90.1265   12.0360 S.2     1  UNL1       -0.0856
      6 C          64.2320   90.5164   13.1013 C.ar    1  UNL1        0.0251
      7 C          64.5658   89.2887   13.8958 C.ar    1  UNL1        0.0233
      8 C          63.7907   88.1400   13.3216 C.ar    1  UNL1        0.0915
      9 N          63.7201   86.6894   13.6968 N.ar    1  UNL1       -0.2293
     10 F          62.0248   84.9635   15.6996 F       1  UNL1       -0.2081
     11 C          62.3600   83.9094   14.6863 C.2     1  UNL1        0.1286
     12 C          62.2894   82.4589   15.0616 C.2     1  UNL1        0.0275
     13 C          62.6246   81.4048   14.0483 C.2     1  UNL1        0.0208
     14 C          63.0305   81.8014   12.6598 C.2     1  UNL1        0.0783
     15 N          63.4156   80.9922   11.4569 N.2     1  UNL1       -0.2441
     16 C          63.7243   81.9427   10.3382 C.2     1  UNL1        0.0986
     17 C          63.5299   83.3394   10.8497 C.2     1  UNL1        0.0187
     18 C          63.1011   83.2521   12.2846 C.2     1  UNL1        0.0102
     19 C          62.7659   84.3060   13.2978 C.3     1  UNL1        0.1323
     20 N          61.2815   88.2429   10.2486 N.pl3   1  UNL1       -0.2876
     21 C          60.7178   89.6321   10.2943 C.3     1  UNL1        0.1243
     22 C          59.9049   90.1499    9.1449 C.3     1  UNL1        0.1636
     23 O          59.6558   89.2785    7.9497 O.3     1  UNL1       -0.3501
     24 C          60.2196   87.8892    7.9040 C.3     1  UNL1        0.1636
     25 C          61.0324   87.3714    9.0534 C.3     1  UNL1        0.1243
     26 C          64.7828   91.8925   13.3317 C.3     1  UNL1        0.1058
     27 N          65.6004   92.5611   12.2664 N.3     1  UNL1       -0.2661
     28 C          66.8225   91.8825   11.7224 C.3     1  UNL1        0.0899
     29 C          67.6401   92.5510   10.6573 C.3     1  UNL1        0.0898
     30 N          67.2356   93.8981   10.1360 N.3     1  UNL1       -0.2673
     31 C          68.0531   94.5666    9.0709 C.3     1  UNL1        0.1047
     32 C          67.6486   95.9137    8.5497 C.3     1  UNL1        0.1595
     33 O          66.4264   96.5923    9.0937 O.3     1  UNL1       -0.3508
     34 C          65.6089   95.9238   10.1589 C.3     1  UNL1        0.1595
     35 C          66.0134   94.5767   10.6800 C.3     1  UNL1        0.1035
     36 C          65.1959   93.9081   11.7453 C.3     1  UNL1        0.0911
@<TRIPOS>BOND
     1    10    11    1
     2    11    12    2
     3    12    13    1
     4    13    14    2
     5    14    15    1
     6    15    16    2
     7    16    17    1
     8    17    18    2
     9    18    19    1
    10    19     1    1
    11     1     2   ar
    12     2     3   ar
    13     3    20    1
    14    20    21    1
    15    21    22    1
    16    22    23    1
    17    23    24    1
    18    24    25    1
    19     3     4   ar
    20     4     5   ar
    21     5     6   ar
    22     6    26    1
    23    26    27    1
    24    27    28    1
    25    28    29    1
    26    29    30    1
    27    30    31    1
    28    31    32    1
    29    32    33    1
    30    33    34    1
    31    35    34    1
    32    35    36    1
    33     6     7   ar
    34     7     8   ar
    35     8     9   ar
    36    19    11    1
    37     9     1   ar
    38    18    14    1
    39    25    20    1
    40     8     4   ar
    41    36    27    1
    42    35    30    1
@<TRIPOS>MOLECULE
*****
 36 42 0 0 0
SMALL
GASTEIGER

@<TRIPOS>ATOM
      1 C          63.0350   84.4527   11.9807 C.ar    1  UNL1        0.1506
      2 N          62.2320   85.3850   11.1229 N.ar    1  UNL1       -0.2148
      3 C          62.2301   86.8567   11.4128 C.ar    1  UNL1        0.1406
      4 C          63.0312   87.3960   12.5605 C.ar    1  UNL1        0.0784
      5 S          63.2219   88.7885   13.0848 S.2     1  UNL1       -0.0856
      6 C          64.1429   88.7166   14.2666 C.ar    1  UNL1        0.0251
      7 C          64.5213   87.2799   14.4727 C.ar    1  UNL1        0.0233
      8 C          63.8343   86.4637   13.4183 C.ar    1  UNL1        0.0915
      9 N          63.8362   84.9920   13.1284 N.ar    1  UNL1       -0.2293
     10 F          64.1756   83.4337    9.3999 F       1  UNL1       -0.2081
     11 C          63.6072   82.4714   10.4004 C.2     1  UNL1        0.1286
     12 C          63.6091   80.9998   10.1104 C.2     1  UNL1        0.0275
     13 C          63.0406   80.0374   11.1109 C.2     1  UNL1        0.0208
     14 C          62.4704   80.5469   12.4014 C.2     1  UNL1        0.0783
     15 N          61.8457   79.8435   13.5697 N.2     1  UNL1       -0.2441
     16 C          61.4577   80.8805   14.5818 C.2     1  UNL1        0.0986
     17 C          61.8426   82.2248   14.0389 C.2     1  UNL1        0.0187
     18 C          62.4685   82.0187   12.6913 C.2     1  UNL1        0.0102
     19 C          63.0369   82.9809   11.6908 C.3     1  UNL1        0.1323
     20 N          61.4270   87.7890   10.5550 N.pl3   1  UNL1       -0.2876
     21 C          61.0260   87.3759    9.1700 C.3     1  UNL1        0.1243
     22 C          60.2229   88.3083    8.3122 C.3     1  UNL1        0.1636
     23 O          59.8209   89.6537    8.8394 O.3     1  UNL1       -0.3501
     24 C          60.2219   90.0669   10.2245 C.3     1  UNL1        0.1636
     25 C          61.0250   89.1345   11.0823 C.3     1  UNL1        0.1243
     26 C          64.6044   89.8777   15.0966 C.3     1  UNL1        0.1058
     27 N          65.0972   91.1276   14.4295 N.3     1  UNL1       -0.2661
     28 C          65.8413   92.1589   15.2251 C.3     1  UNL1        0.0899
     29 C          66.3341   93.4087   14.5581 C.3     1  UNL1        0.0898
     30 N          66.0829   93.6273   13.0954 N.3     1  UNL1       -0.2673
     31 C          66.5758   94.8772   12.4284 C.3     1  UNL1        0.1047
     32 C          66.3246   95.0957   10.9659 C.3     1  UNL1        0.1595
     33 O          65.5805   94.0645   10.1703 O.3     1  UNL1       -0.3508
     34 C          65.0877   92.8146   10.8374 C.3     1  UNL1        0.1595
     35 C          65.3389   92.5961   12.2999 C.3     1  UNL1        0.1035
     36 C          64.8460   91.3462   12.9670 C.3     1  UNL1        0.0911
@<TRIPOS>BOND
     1    10    11    1
     2    11    12    2
     3    12    13    1
     4    13    14    2
     5    14    15    1
     6    15    16    2
     7    16    17    1
     8    17    18    2
     9    18    19    1
    10    19     1    1
    11     1     2   ar
    12     2     3   ar
    13     3    20    1
    14    20    21    1
    15    21    22    1
    16    22    23    1
    17    23    24    1
    18    24    25    1
    19     3     4   ar
    20     4     5   ar
    21     5     6   ar
    22     6    26    1
    23    26    27    1
    24    27    28    1
    25    28    29    1
    26    29    30    1
    27    30    31    1
    28    31    32    1
    29    32    33    1
    30    33    34    1
    31    35    34    1
    32    35    36    1
    33     6     7   ar
    34     7     8   ar
    35     8     9   ar
    36    19    11    1
    37     9     1   ar
    38    18    14    1
    39    25    20    1
    40     8     4   ar
    41    36    27    1
    42    35    30    1
@<TRIPOS>MOLECULE
*****
 36 42 0 0 0
SMALL
GASTEIGER

@<TRIPOS>ATOM
      1 C          62.6572   85.0742   11.4318 C.ar    1  UNL1        0.1506
      2 N          61.7541   85.6018   10.3566 N.ar    1  UNL1       -0.2148
      3 C          61.4983   87.0758   10.2484 C.ar    1  UNL1        0.1406
      4 C          62.1456   88.0223   11.2155 C.ar    1  UNL1        0.0784
      5 S          62.0814   89.5145   11.3548 S.2     1  UNL1       -0.0856
      6 C          62.9449   89.9091   12.5162 C.ar    1  UNL1        0.0251
      7 C          63.5427   88.6608   13.0945 C.ar    1  UNL1        0.0233
      8 C          63.0487   87.4947   12.2907 C.ar    1  UNL1        0.0915
      9 N          63.3045   86.0207   12.3988 N.ar    1  UNL1       -0.2293
     10 F          63.6776   83.5508    9.0573 F       1  UNL1       -0.2081
     11 C          63.4232   82.8384   10.3527 C.2     1  UNL1        0.1286
     12 C          63.6791   81.3644   10.4607 C.2     1  UNL1        0.0275
     13 C          63.4247   80.6520   11.7561 C.2     1  UNL1        0.0208
     14 C          62.9145   81.4137   12.9433 C.2     1  UNL1        0.0783
     15 N          62.5738   80.9853   14.3399 N.2     1  UNL1       -0.2441
     16 C          62.1073   82.1946   15.0950 C.2     1  UNL1        0.0986
     17 C          62.1598   83.3704   14.1650 C.2     1  UNL1        0.0187
     18 C          62.6587   82.8878   12.8352 C.2     1  UNL1        0.0102
     19 C          62.9131   83.6001   11.5399 C.3     1  UNL1        0.1323
     20 N          60.5952   87.6034    9.1732 N.pl3   1  UNL1       -0.2876
     21 C          60.5733   89.0713    8.8655 C.3     1  UNL1        0.1243
     22 C          59.6702   89.5989    7.7903 C.3     1  UNL1        0.1636
     23 O          58.7890   88.6586    7.0228 O.3     1  UNL1       -0.3501
     24 C          58.8108   87.1907    7.3305 C.3     1  UNL1        0.1636
     25 C          59.7139   86.6631    8.4057 C.3     1  UNL1        0.1243
     26 C          63.1709   91.3066   13.0121 C.3     1  UNL1        0.1058
     27 N          64.3783   91.6208   13.8448 N.3     1  UNL1       -0.2661
     28 C          64.2379   91.8168   15.3253 C.3     1  UNL1        0.0899
     29 C          65.4453   92.1311   16.1581 C.3     1  UNL1        0.0898
     30 N          66.7931   92.2493   15.5104 N.3     1  UNL1       -0.2673
     31 C          68.0005   92.5635   16.3432 C.3     1  UNL1        0.1047
     32 C          69.3482   92.6817   15.6954 C.3     1  UNL1        0.1595
     33 O          69.4886   92.4856   14.2150 O.3     1  UNL1       -0.3508
     34 C          68.2813   92.1714   13.3822 C.3     1  UNL1        0.1595
     35 C          66.9335   92.0532   14.0299 C.3     1  UNL1        0.1035
     36 C          65.7261   91.7390   13.1971 C.3     1  UNL1        0.0911
@<TRIPOS>BOND
     1    10    11    1
     2    11    12    2
     3    12    13    1
     4    13    14    2
     5    14    15    1
     6    15    16    2
     7    16    17    1
     8    17    18    2
     9    18    19    1
    10    19     1    1
    11     1     2   ar
    12     2     3   ar
    13     3    20    1
    14    20    21    1
    15    21    22    1
    16    22    23    1
    17    23    24    1
    18    24    25    1
    19     3     4   ar
    20     4     5   ar
    21     5     6   ar
    22     6    26    1
    23    26    27    1
    24    27    28    1
    25    28    29    1
    26    29    30    1
    27    30    31    1
    28    31    32    1
    29    32    33    1
    30    33    34    1
    31    35    34    1
    32    35    36    1
    33     6     7   ar
    34     7     8   ar
    35     8     9   ar
    36    19    11    1
    37     9     1   ar
    38    18    14    1
    39    25    20    1
    40     8     4   ar
    41    36    27    1
    42    35    30    1
@<TRIPOS>MOLECULE
*****
 36 42 0 0 0
SMALL
GASTEIGER

@<TRIPOS>ATOM
      1 C          62.4244   85.1261   12.3490 C.ar    1  UNL1        0.1506
      2 N          61.6086   85.5110   11.1506 N.ar    1  UNL1       -0.2148
      3 C          61.5712   86.9401   10.6963 C.ar    1  UNL1        0.1406
      4 C          62.3496   87.9842   11.4405 C.ar    1  UNL1        0.0784
      5 S          62.5043   89.4612   11.2292 S.2     1  UNL1       -0.0856
      6 C          63.4158   89.9891   12.2972 C.ar    1  UNL1        0.0251
      7 C          63.8243   88.8384   13.1684 C.ar    1  UNL1        0.0233
      8 C          63.1654   87.5993   12.6389 C.ar    1  UNL1        0.0915
      9 N          63.2028   86.1703   13.0932 N.ar    1  UNL1       -0.2293
     10 F          61.6681   84.4277   15.1669 F       1  UNL1       -0.2081
     11 C          62.0837   83.3478   14.2122 C.2     1  UNL1        0.1286
     12 C          62.1210   81.9188   14.6665 C.2     1  UNL1        0.0275
     13 C          62.5366   80.8389   13.7119 C.2     1  UNL1        0.0208
     14 C          62.9148   81.1881   12.3030 C.2     1  UNL1        0.0783
     15 N          63.3621   80.3454   11.1456 N.2     1  UNL1       -0.2441
     16 C          63.6013   81.2536    9.9759 C.2     1  UNL1        0.0986
     17 C          63.3017   82.6577   10.4105 C.2     1  UNL1        0.0187
     18 C          62.8774   82.6172   11.8487 C.2     1  UNL1        0.0102
     19 C          62.4618   83.6970   12.8033 C.3     1  UNL1        0.1323
     20 N          60.7554   87.3249    9.4978 N.pl3   1  UNL1       -0.2876
     21 C          60.5340   88.7729    9.1748 C.3     1  UNL1        0.1243
     22 C          59.7182   89.1578    7.9764 C.3     1  UNL1        0.1636
     23 O          59.1238   88.0947    7.1009 O.3     1  UNL1       -0.3501
     24 C          59.3452   86.6467    7.4238 C.3     1  UNL1        0.1636
     25 C          60.1610   86.2619    8.6223 C.3     1  UNL1        0.1243
     26 C          63.8436   91.4171   12.4646 C.3     1  UNL1        0.1058
     27 N          64.9127   91.7684   13.4565 N.3     1  UNL1       -0.2661
     28 C          64.5593   91.9692   14.9004 C.3     1  UNL1        0.0899
     29 C          65.6283   92.3205   15.8923 C.3     1  UNL1        0.0898
     30 N          67.0507   92.4710   15.4403 N.3     1  UNL1       -0.2673
     31 C          68.1196   92.8223   16.4321 C.3     1  UNL1        0.1047
     32 C          69.5420   92.9727   15.9801 C.3     1  UNL1        0.1595
     33 O          69.8953   92.7719   14.5362 O.3     1  UNL1       -0.3508
     34 C          68.8263   92.4206   13.5444 C.3     1  UNL1        0.1595
     35 C          67.4040   92.2701   13.9964 C.3     1  UNL1        0.1035
     36 C          66.3350   91.9188   13.0045 C.3     1  UNL1        0.0911
@<TRIPOS>BOND
     1    10    11    1
     2    11    12    2
     3    12    13    1
     4    13    14    2
     5    14    15    1
     6    15    16    2
     7    16    17    1
     8    17    18    2
     9    18    19    1
    10    19     1    1
    11     1     2   ar
    12     2     3   ar
    13     3    20    1
    14    20    21    1
    15    21    22    1
    16    22    23    1
    17    23    24    1
    18    24    25    1
    19     3     4   ar
    20     4     5   ar
    21     5     6   ar
    22     6    26    1
    23    26    27    1
    24    27    28    1
    25    28    29    1
    26    29    30    1
    27    30    31    1
    28    31    32    1
    29    32    33    1
    30    33    34    1
    31    35    34    1
    32    35    36    1
    33     6     7   ar
    34     7     8   ar
    35     8     9   ar
    36    19    11    1
    37     9     1   ar
    38    18    14    1
    39    25    20    1
    40     8     4   ar
    41    36    27    1
    42    35    30    1
@<TRIPOS>MOLECULE
*****
 36 42 0 0 0
SMALL
GASTEIGER

@<TRIPOS>ATOM
      1 C          63.1410   89.8518   12.3925 C.ar    1  UNL1        0.1506
      2 N          63.2793   88.3588   12.3485 N.ar    1  UNL1       -0.2148
      3 C          62.5205   87.5651   11.3266 C.ar    1  UNL1        0.1406
      4 C          61.6233   88.2644   10.3489 C.ar    1  UNL1        0.0784
      5 S          60.7567   87.7511    9.2373 S.2     1  UNL1       -0.0856
      6 C          60.0827   88.9270    8.5944 C.ar    1  UNL1        0.0251
      7 C          60.5328   90.1668    9.3087 C.ar    1  UNL1        0.0233
      8 C          61.4849   89.7574   10.3930 C.ar    1  UNL1        0.0915
      9 N          62.2438   90.5510   11.4148 N.ar    1  UNL1       -0.2293
     10 F          62.6272   89.4143   15.3157 F       1  UNL1       -0.2081
     11 C          63.6430   90.4267   14.8760 C.2     1  UNL1        0.1286
     12 C          64.4019   91.2203   15.8979 C.2     1  UNL1        0.0275
     13 C          65.4177   92.2327   15.4582 C.2     1  UNL1        0.0208
     14 C          65.6745   92.4515   13.9966 C.2     1  UNL1        0.0783
     15 N          66.6078   93.3727   13.2685 N.2     1  UNL1       -0.2441
     16 C          66.4258   93.1485   11.7965 C.2     1  UNL1        0.0986
     17 C          65.3799   92.0886   11.6149 C.2     1  UNL1        0.0187
     18 C          64.9156   91.6578   12.9748 C.2     1  UNL1        0.0102
     19 C          63.8999   90.6454   13.4144 C.3     1  UNL1        0.1323
     20 N          62.6588   86.0722   11.2825 N.pl3   1  UNL1       -0.2876
     21 C          62.5372   85.2701   12.5442 C.3     1  UNL1        0.1243
     22 C          62.6756   83.7771   12.5001 C.3     1  UNL1        0.1636
     23 O          62.9355   83.0863   11.1944 O.3     1  UNL1       -0.3501
     24 C          63.0571   83.8883    9.9327 C.3     1  UNL1        0.1636
     25 C          62.9188   85.3813    9.9768 C.3     1  UNL1        0.1243
     26 C          59.1265   88.8725    7.4399 C.3     1  UNL1        0.1058
     27 N          59.2281   89.8806    6.3337 N.3     1  UNL1       -0.2661
     28 C          58.0081   90.6316    5.8892 C.3     1  UNL1        0.0899
     29 C          58.1096   91.6396    4.7830 C.3     1  UNL1        0.0898
     30 N          59.4311   91.8967    4.1215 N.3     1  UNL1       -0.2673
     31 C          59.5326   92.9047    3.0154 C.3     1  UNL1        0.1047
     32 C          60.8541   93.1618    2.3539 C.3     1  UNL1        0.1595
     33 O          62.0740   92.4108    2.7985 O.3     1  UNL1       -0.3508
     34 C          61.9725   91.4027    3.9046 C.3     1  UNL1        0.1595
     35 C          60.6511   91.1457    4.5661 C.3     1  UNL1        0.1035
     36 C          60.5495   90.1376    5.6722 C.3     1  UNL1        0.0911
@<TRIPOS>BOND
     1    10    11    1
     2    11    12    2
     3    12    13    1
     4    13    14    2
     5    14    15    1
     6    15    16    2
     7    16    17    1
     8    17    18    2
     9    18    19    1
    10    19     1    1
    11     1     2   ar
    12     2     3   ar
    13     3    20    1
    14    20    21    1
    15    21    22    1
    16    22    23    1
    17    23    24    1
    18    24    25    1
    19     3     4   ar
    20     4     5   ar
    21     5     6   ar
    22     6    26    1
    23    26    27    1
    24    27    28    1
    25    28    29    1
    26    29    30    1
    27    30    31    1
    28    31    32    1
    29    32    33    1
    30    33    34    1
    31    35    34    1
    32    35    36    1
    33     6     7   ar
    34     7     8   ar
    35     8     9   ar
    36    19    11    1
    37     9     1   ar
    38    18    14    1
    39    25    20    1
    40     8     4   ar
    41    36    27    1
    42    35    30    1
@<TRIPOS>MOLECULE
*****
 36 42 0 0 0
SMALL
GASTEIGER

@<TRIPOS>ATOM
      1 C          62.3144   85.6530   10.5323 C.ar    1  UNL1        0.1506
      2 N          62.8346   86.9491   11.0795 N.ar    1  UNL1       -0.2148
      3 C          62.2819   88.2505   10.5786 C.ar    1  UNL1        0.1406
      4 C          61.2089   88.2557    9.5304 C.ar    1  UNL1        0.0784
      5 S          60.4770   89.3737    8.8489 S.2     1  UNL1       -0.0856
      6 C          59.5044   88.7685    7.8805 C.ar    1  UNL1        0.0251
      7 C          59.6353   87.2765    7.9635 C.ar    1  UNL1        0.0233
      8 C          60.6887   86.9596    8.9832 C.ar    1  UNL1        0.0915
      9 N          61.2414   85.6582    9.4841 N.ar    1  UNL1       -0.2293
     10 F          63.6106   83.7387    8.6205 F       1  UNL1       -0.2081
     11 C          63.5153   83.3945   10.0774 C.2     1  UNL1        0.1286
     12 C          64.0681   82.0932   10.5783 C.2     1  UNL1        0.0275
     13 C          63.9728   81.7489   12.0352 C.2     1  UNL1        0.0208
     14 C          63.3246   82.7061   12.9911 C.2     1  UNL1        0.0783
     15 N          63.0872   82.6406   14.4707 N.2     1  UNL1       -0.2441
     16 C          62.3877   83.9014   14.8843 C.2     1  UNL1        0.0986
     17 C          62.1928   84.7462   13.6602 C.2     1  UNL1        0.0187
     18 C          62.7718   84.0075   12.4901 C.2     1  UNL1        0.0102
     19 C          62.8672   84.3516   11.0333 C.3     1  UNL1        0.1323
     20 N          62.8021   89.5466   11.1258 N.pl3   1  UNL1       -0.2876
     21 C          63.1693   90.6614   10.1920 C.3     1  UNL1        0.1243
     22 C          63.6896   91.9575   10.7392 C.3     1  UNL1        0.1636
     23 O          63.8425   92.1388   12.2203 O.3     1  UNL1       -0.3501
     24 C          63.4752   91.0239   13.1542 C.3     1  UNL1        0.1636
     25 C          62.9550   89.7278   12.6069 C.3     1  UNL1        0.1243
     26 C          58.5658   89.5228    6.9861 C.3     1  UNL1        0.1058
     27 N          59.1096   90.4050    5.9015 N.3     1  UNL1       -0.2661
     28 C          58.2102   91.3883    5.2131 C.3     1  UNL1        0.0899
     29 C          58.7539   92.2705    4.1286 C.3     1  UNL1        0.0898
     30 N          60.1972   92.1693    3.7325 N.3     1  UNL1       -0.2673
     31 C          60.7409   93.0514    2.6481 C.3     1  UNL1        0.1047
     32 C          62.1841   92.9501    2.2521 C.3     1  UNL1        0.1595
     33 O          63.0836   91.9668    2.9405 O.3     1  UNL1       -0.3508
     34 C          62.5398   91.0846    4.0250 C.3     1  UNL1        0.1595
     35 C          61.0966   91.1859    4.4210 C.3     1  UNL1        0.1035
     36 C          60.5528   90.3037    5.5055 C.3     1  UNL1        0.0911
@<TRIPOS>BOND
     1    10    11    1
     2    11    12    2
     3    12    13    1
     4    13    14    2
     5    14    15    1
     6    15    16    2
     7    16    17    1
     8    17    18    2
     9    18    19    1
    10    19     1    1
    11     1     2   ar
    12     2     3   ar
    13     3    20    1
    14    20    21    1
    15    21    22    1
    16    22    23    1
    17    23    24    1
    18    24    25    1
    19     3     4   ar
    20     4     5   ar
    21     5     6   ar
    22     6    26    1
    23    26    27    1
    24    27    28    1
    25    28    29    1
    26    29    30    1
    27    30    31    1
    28    31    32    1
    29    32    33    1
    30    33    34    1
    31    35    34    1
    32    35    36    1
    33     6     7   ar
    34     7     8   ar
    35     8     9   ar
    36    19    11    1
    37     9     1   ar
    38    18    14    1
    39    25    20    1
    40     8     4   ar
    41    36    27    1
    42    35    30    1
@<TRIPOS>MOLECULE
*****
 36 42 0 0 0
SMALL
GASTEIGER

@<TRIPOS>ATOM
      1 C          63.1453   89.8215   12.2398 C.ar    1  UNL1        0.1506
      2 N          63.2725   88.3274   12.2012 N.ar    1  UNL1       -0.2148
      3 C          62.5091   87.5359   11.1811 C.ar    1  UNL1        0.1406
      4 C          61.6184   88.2384   10.1997 C.ar    1  UNL1        0.0784
      5 S          60.7495   87.7277    9.0888 S.2     1  UNL1       -0.0856
      6 C          60.0852   88.9064    8.4408 C.ar    1  UNL1        0.0251
      7 C          60.5436   90.1453    9.1514 C.ar    1  UNL1        0.0233
      8 C          61.4912   89.7325   10.2384 C.ar    1  UNL1        0.0915
      9 N          62.2546   90.5241   11.2585 N.ar    1  UNL1       -0.2293
     10 F          65.1772   91.8437   11.3556 F       1  UNL1       -0.2081
     11 C          64.9248   91.6242   12.8178 C.2     1  UNL1        0.1286
     12 C          65.6882   92.4157   13.8379 C.2     1  UNL1        0.0275
     13 C          65.4357   92.1962   15.3001 C.2     1  UNL1        0.0208
     14 C          64.4198   91.1851   15.7423 C.2     1  UNL1        0.0783
     15 N          63.9592   90.7540   17.1031 N.2     1  UNL1       -0.2441
     16 C          62.9110   89.6960   16.9242 C.2     1  UNL1        0.0986
     17 C          62.7238   89.4732   15.4526 C.2     1  UNL1        0.0187
     18 C          63.6563   90.3936   14.7221 C.2     1  UNL1        0.0102
     19 C          63.9088   90.6131   13.2600 C.3     1  UNL1        0.1323
     20 N          62.6363   86.0418   11.1424 N.pl3   1  UNL1       -0.2876
     21 C          62.4920   85.2439   12.4043 C.3     1  UNL1        0.1243
     22 C          62.6192   83.7498   12.3656 C.3     1  UNL1        0.1636
     23 O          62.8908   83.0536   11.0651 O.3     1  UNL1       -0.3501
     24 C          63.0351   83.8515    9.8032 C.3     1  UNL1        0.1636
     25 C          62.9079   85.3456    9.8418 C.3     1  UNL1        0.1243
     26 C          59.1302   88.8549    7.2853 C.3     1  UNL1        0.1058
     27 N          59.2122   89.8852    6.1981 N.3     1  UNL1       -0.2661
     28 C          57.9750   90.6088    5.7556 C.3     1  UNL1        0.0899
     29 C          58.0569   91.6390    4.6685 C.3     1  UNL1        0.0898
     30 N          59.3762   91.9457    4.0238 N.3     1  UNL1       -0.2673
     31 C          59.4581   92.9760    2.9367 C.3     1  UNL1        0.1047
     32 C          60.7773   93.2826    2.2920 C.3     1  UNL1        0.1595
     33 O          62.0146   92.5591    2.7345 O.3     1  UNL1       -0.3508
     34 C          61.9326   91.5289    3.8216 C.3     1  UNL1        0.1595
     35 C          60.6134   91.2222    4.4663 C.3     1  UNL1        0.1035
     36 C          60.5314   90.1919    5.5534 C.3     1  UNL1        0.0911
@<TRIPOS>BOND
     1    10    11    1
     2    11    12    2
     3    12    13    1
     4    13    14    2
     5    14    15    1
     6    15    16    2
     7    16    17    1
     8    17    18    2
     9    18    19    1
    10    19     1    1
    11     1     2   ar
    12     2     3   ar
    13     3    20    1
    14    20    21    1
    15    21    22    1
    16    22    23    1
    17    23    24    1
    18    24    25    1
    19     3     4   ar
    20     4     5   ar
    21     5     6   ar
    22     6    26    1
    23    26    27    1
    24    27    28    1
    25    28    29    1
    26    29    30    1
    27    30    31    1
    28    31    32    1
    29    32    33    1
    30    33    34    1
    31    35    34    1
    32    35    36    1
    33     6     7   ar
    34     7     8   ar
    35     8     9   ar
    36    19    11    1
    37     9     1   ar
    38    18    14    1
    39    25    20    1
    40     8     4   ar
    41    36    27    1
    42    35    30    1
@<TRIPOS>MOLECULE
*****
 36 42 0 0 0
SMALL
GASTEIGER

@<TRIPOS>ATOM
      1 C          61.7838   87.0593   10.6373 C.ar    1  UNL1        0.1506
      2 N          62.1521   85.9680   11.5982 N.ar    1  UNL1       -0.2148
      3 C          62.9964   86.2788   12.7984 C.ar    1  UNL1        0.1406
      4 C          63.4724   87.6810   13.0377 C.ar    1  UNL1        0.0784
      5 S          64.3112   88.2843   14.1251 S.2     1  UNL1       -0.0856
      6 C          64.4613   89.7486   13.8362 C.ar    1  UNL1        0.0251
      7 C          63.7153   90.0502   12.5703 C.ar    1  UNL1        0.0233
      8 C          63.1041   88.7723   12.0767 C.ar    1  UNL1        0.0915
      9 N          62.2598   88.4615   10.8765 N.ar    1  UNL1       -0.2293
     10 F          58.9989   88.1566   10.4376 F       1  UNL1       -0.2081
     11 C          59.5470   87.2970    9.3371 C.2     1  UNL1        0.1286
     12 C          58.7027   86.9862    8.1370 C.2     1  UNL1        0.0275
     13 C          59.2509   86.1267    7.0366 C.2     1  UNL1        0.0208
     14 C          60.6434   85.5780    7.1364 C.2     1  UNL1        0.0783
     15 N          61.4481   84.7088    6.2162 N.2     1  UNL1       -0.2441
     16 C          62.7898   84.4824    6.8477 C.2     1  UNL1        0.0986
     17 C          62.8143   85.2117    8.1582 C.2     1  UNL1        0.0187
     18 C          61.4877   85.8889    8.3367 C.2     1  UNL1        0.0102
     19 C          60.9395   86.7484    9.4370 C.3     1  UNL1        0.1323
     20 N          63.3647   85.1875   13.7593 N.pl3   1  UNL1       -0.2876
     21 C          64.6776   84.4758   13.6186 C.3     1  UNL1        0.1243
     22 C          65.0459   83.3845   14.5795 C.3     1  UNL1        0.1636
     23 O          64.1013   83.0048   15.6811 O.3     1  UNL1       -0.3501
     24 C          62.7884   83.7164   15.8217 C.3     1  UNL1        0.1636
     25 C          62.4201   84.8077   14.8608 C.3     1  UNL1        0.1243
     26 C          65.2236   90.7376   14.6673 C.3     1  UNL1        0.1058
     27 N          65.6291   92.0567   14.0793 N.3     1  UNL1       -0.2661
     28 C          66.3070   93.0836   14.9371 C.3     1  UNL1        0.0899
     29 C          66.7126   94.4026   14.3492 C.3     1  UNL1        0.0898
     30 N          66.4402   94.6948   12.9033 N.3     1  UNL1       -0.2673
     31 C          66.8457   96.0138   12.3153 C.3     1  UNL1        0.1047
     32 C          66.5734   96.3059   10.8695 C.3     1  UNL1        0.1595
     33 O          65.8955   95.2790   10.0116 O.3     1  UNL1       -0.3508
     34 C          65.4899   93.9600   10.5996 C.3     1  UNL1        0.1595
     35 C          65.7623   93.6679   12.0454 C.3     1  UNL1        0.1035
     36 C          65.3568   92.3488   12.6334 C.3     1  UNL1        0.0911
@<TRIPOS>BOND
     1    10    11    1
     2    11    12    2
     3    12    13    1
     4    13    14    2
     5    14    15    1
     6    15    16    2
     7    16    17    1
     8    17    18    2
     9    18    19    1
    10    19     1    1
    11     1     2   ar
    12     2     3   ar
    13     3    20    1
    14    20    21    1
    15    21    22    1
    16    22    23    1
    17    23    24    1
    18    24    25    1
    19     3     4   ar
    20     4     5   ar
    21     5     6   ar
    22     6    26    1
    23    26    27    1
    24    27    28    1
    25    28    29    1
    26    29    30    1
    27    30    31    1
    28    31    32    1
    29    32    33    1
    30    33    34    1
    31    35    34    1
    32    35    36    1
    33     6     7   ar
    34     7     8   ar
    35     8     9   ar
    36    19    11    1
    37     9     1   ar
    38    18    14    1
    39    25    20    1
    40     8     4   ar
    41    36    27    1
    42    35    30    1
@<TRIPOS>MOLECULE
*****
 36 42 0 0 0
SMALL
GASTEIGER

@<TRIPOS>ATOM
      1 C          65.5892   92.3517   10.9882 C.ar    1  UNL1        0.1506
      2 N          64.2883   91.8709   10.4169 N.ar    1  UNL1       -0.2148
      3 C          63.3936   90.9841   11.2312 C.ar    1  UNL1        0.1406
      4 C          63.7998   90.5783   12.6170 C.ar    1  UNL1        0.0784
      5 S          63.1295   89.7199   13.6485 S.2     1  UNL1       -0.0856
      6 C          64.0162   89.6704   14.8574 C.ar    1  UNL1        0.0251
      7 C          65.2344   90.4981   14.5730 C.ar    1  UNL1        0.0233
      8 C          65.1007   91.0592   13.1883 C.ar    1  UNL1        0.0915
      9 N          65.9954   91.9459   12.3740 N.ar    1  UNL1       -0.2293
     10 F          68.2263   91.3193    9.9986 F       1  UNL1       -0.2081
     11 C          67.8024   92.7223    9.6790 C.2     1  UNL1        0.1286
     12 C          68.6971   93.6090    8.8646 C.2     1  UNL1        0.0275
     13 C          68.2733   95.0119    8.5449 C.2     1  UNL1        0.0208
     14 C          66.9547   95.5281    9.0398 C.2     1  UNL1        0.0783
     15 N          66.2744   96.8559    8.8843 N.2     1  UNL1       -0.2441
     16 C          64.9591   96.7899    9.6027 C.2     1  UNL1        0.0986
     17 C          64.8267   95.4212   10.2021 C.2     1  UNL1        0.0187
     18 C          66.0600   94.6414    9.8542 C.2     1  UNL1        0.0102
     19 C          66.4839   93.2385   10.1738 C.3     1  UNL1        0.1323
     20 N          62.0927   90.5033   10.6599 N.pl3   1  UNL1       -0.2876
     21 C          60.7961   91.0277   11.2017 C.3     1  UNL1        0.1243
     22 C          59.4952   90.5468   10.6303 C.3     1  UNL1        0.1636
     23 O          59.4909   89.5415    9.5172 O.3     1  UNL1       -0.3501
     24 C          60.7876   89.0170    8.9754 C.3     1  UNL1        0.1636
     25 C          62.0885   89.4979    9.5467 C.3     1  UNL1        0.1243
     26 C          63.7342   88.9241   16.1276 C.3     1  UNL1        0.1058
     27 N          63.4541   87.4510   16.0857 N.3     1  UNL1       -0.2661
     28 C          62.5825   86.8232   17.1326 C.3     1  UNL1        0.0899
     29 C          62.3024   85.3502   17.0907 C.3     1  UNL1        0.0898
     30 N          62.8939   84.5050   16.0018 N.3     1  UNL1       -0.2673
     31 C          62.6138   83.0320   15.9599 C.3     1  UNL1        0.1047
     32 C          63.2053   82.1868   14.8710 C.3     1  UNL1        0.1595
     33 O          64.0769   82.8146   13.8240 O.3     1  UNL1       -0.3508
     34 C          64.3570   84.2876   13.8660 C.3     1  UNL1        0.1595
     35 C          63.7655   85.1328   14.9548 C.3     1  UNL1        0.1035
     36 C          64.0456   86.6058   14.9968 C.3     1  UNL1        0.0911
@<TRIPOS>BOND
     1    10    11    1
     2    11    12    2
     3    12    13    1
     4    13    14    2
     5    14    15    1
     6    15    16    2
     7    16    17    1
     8    17    18    2
     9    18    19    1
    10    19     1    1
    11     1     2   ar
    12     2     3   ar
    13     3    20    1
    14    20    21    1
    15    21    22    1
    16    22    23    1
    17    23    24    1
    18    24    25    1
    19     3     4   ar
    20     4     5   ar
    21     5     6   ar
    22     6    26    1
    23    26    27    1
    24    27    28    1
    25    28    29    1
    26    29    30    1
    27    30    31    1
    28    31    32    1
    29    32    33    1
    30    33    34    1
    31    35    34    1
    32    35    36    1
    33     6     7   ar
    34     7     8   ar
    35     8     9   ar
    36    19    11    1
    37     9     1   ar
    38    18    14    1
    39    25    20    1
    40     8     4   ar
    41    36    27    1
    42    35    30    1
