@<TRIPOS>MOLECULE
*****
 43 47 0 0 0
SMALL
GASTEIGER

@<TRIPOS>ATOM
      1 C          62.6736   93.9921    0.2196 C.ar    1  UNL1        0.0096
      2 C          64.0374   94.6009    0.3580 C.ar    1  UNL1        0.0355
      3 S          64.5086   94.9983   -1.0095 S.2     1  UNL1       -0.0863
      4 C          63.4359   94.6351   -1.9931 C.ar    1  UNL1        0.0337
      5 C          63.3454   94.7903   -3.4823 C.ar    1  UNL1        0.0283
      6 C          62.1207   94.3236   -4.2119 C.ar    1  UNL1        0.1008
      7 N          60.9865   93.7017   -3.4523 N.ar    1  UNL1       -0.2296
      8 C          61.0771   93.5465   -1.9630 C.ar    1  UNL1        0.1258
      9 N          59.9430   92.9247   -1.2034 N.pl3   1  UNL1       -0.3426
     10 C          62.3018   94.0132   -1.2335 C.ar    1  UNL1        0.0377
     11 H          59.1392   92.6184   -1.6823 H       1  UNL1        0.1437
     12 H          60.0024   92.8228   -0.2260 H       1  UNL1        0.1437
     13 C          60.1416   92.3845    3.5745 C.ar    1  UNL1        0.0516
     14 C          59.5336   93.2869    2.5420 C.ar    1  UNL1        0.0147
     15 C          60.3776   93.8228    1.4236 C.ar    1  UNL1        0.0013
     16 C          61.8296   93.4563    1.3379 C.ar    1  UNL1        0.0007
     17 C          62.4375   92.5539    2.3703 C.ar    1  UNL1        0.0013
     18 C          61.5936   92.0180    3.4887 C.ar    1  UNL1        0.0147
     19 N          58.9674   90.1949    6.6690 N.am    1  UNL1       -0.2681
     20 C          59.8114   90.7307    5.5507 C.2     1  UNL1        0.3082
     21 O          61.1691   90.1487    5.2905 O.2     1  UNL1       -0.2522
     22 N          59.2976   91.8487    4.6927 N.am    1  UNL1       -0.2681
     23 H          58.0763   90.5769    6.8398 H       1  UNL1        0.1564
     24 H          58.4065   92.2307    4.8635 H       1  UNL1        0.1564
     25 C          60.5086   86.8410    9.2431 C.ar    1  UNL1        0.1388
     26 C          59.7320   86.5340    7.9971 C.ar    1  UNL1        0.0382
     27 C          59.2183   87.6520    7.1391 C.ar    1  UNL1        0.0178
     28 C          59.4812   89.0769    7.5271 C.ar    1  UNL1        0.0518
     29 C          60.2578   89.3839    8.7732 C.ar    1  UNL1        0.0178
     30 C          60.7715   88.2659    9.6311 C.ar    1  UNL1        0.0382
     31 C          62.0245   86.0060   11.1809 C.3     1  UNL1        0.2525
     32 O          61.0224   85.7231   10.1012 O.3     1  UNL1       -0.4714
     33 C          64.4796   95.4121   -4.2419 C.ar    1  UNL1        0.0416
     34 C          65.3266   96.5601   -3.7785 C.ar    1  UNL1        0.1217
     35 N          66.3363   96.8526   -4.8485 N.ar    1  UNL1       -0.1676
     36 N          66.1134   95.8855   -5.9731 N.ar    1  UNL1       -0.2470
     37 C          64.9658   94.9951   -5.5983 C.ar    1  UNL1        0.0968
     38 C          66.8998   95.8201   -7.2487 C.3     1  UNL1        0.1541
     39 C          68.0248   94.8375   -7.3867 C.3     1  UNL1        0.1110
     40 C          69.0170   95.9492   -7.2136 C.3     1  UNL1        0.0314
     41 C          67.0327   93.7259   -7.5598 C.3     1  UNL1        0.0314
     42 O          69.1499   93.8550   -7.5247 O.3     1  UNL1       -0.3848
     43 H          69.9972   94.3210   -7.4489 H       1  UNL1        0.2103
@<TRIPOS>BOND
     1    31    32    1
     2    32    25    1
     3    25    26   ar
     4    26    27   ar
     5    27    28   ar
     6    28    19    1
     7    19    20   am
     8    20    21    2
     9    20    22   am
    10    22    13    1
    11    13    14   ar
    12    14    15   ar
    13    15    16   ar
    14    16     1    1
    15     1     2   ar
    16     2     3   ar
    17     3     4   ar
    18     4     5   ar
    19     5    33    1
    20    33    34   ar
    21    34    35   ar
    22    35    36   ar
    23    36    38    1
    24    38    39    1
    25    39    40    1
    26    39    41    1
    27    39    42    1
    28    36    37   ar
    29     5     6   ar
    30     6     7   ar
    31     7     8   ar
    32     8     9    1
    33     8    10   ar
    34    16    17   ar
    35    17    18   ar
    36    28    29   ar
    37    29    30   ar
    38    30    25   ar
    39    18    13   ar
    40    10     1   ar
    41    10     4   ar
    42    37    33   ar
    43    19    23    1
    44    22    24    1
    45    42    43    1
    46     9    11    1
    47     9    12    1
@<TRIPOS>MOLECULE
*****
 43 47 0 0 0
SMALL
GASTEIGER

@<TRIPOS>ATOM
      1 C          61.0667   87.4774    9.5941 C.ar    1  UNL1        0.0096
      2 C          60.9069   85.9924    9.7328 C.ar    1  UNL1        0.0355
      3 S          61.6815   85.5537   10.9401 S.2     1  UNL1       -0.0863
      4 C          62.3201   86.7675   11.5475 C.ar    1  UNL1        0.0337
      5 C          63.1984   86.9437   12.7506 C.ar    1  UNL1        0.0283
      6 C          63.6968   88.3089   13.1218 C.ar    1  UNL1        0.1008
      7 N          63.3168   89.4979   12.2900 N.ar    1  UNL1       -0.2296
      8 C          62.4384   89.3216   11.0869 C.ar    1  UNL1        0.1258
      9 N          62.0584   90.5106   10.2550 N.pl3   1  UNL1       -0.3426
     10 C          61.9401   87.9564   10.7157 C.ar    1  UNL1        0.0377
     11 H          62.3855   91.4066   10.4987 H       1  UNL1        0.1437
     12 H          61.4819   90.3949    9.4654 H       1  UNL1        0.1437
     13 C          59.2456   90.0447    6.3781 C.ar    1  UNL1        0.0516
     14 C          60.0580   90.6747    7.4704 C.ar    1  UNL1        0.0147
     15 C          60.6651   89.8189    8.5424 C.ar    1  UNL1        0.0013
     16 C          60.4597   88.3332    8.5221 C.ar    1  UNL1        0.0007
     17 C          59.6473   87.7033    7.4299 C.ar    1  UNL1        0.0013
     18 C          59.0402   88.5590    6.3578 C.ar    1  UNL1        0.0147
     19 N          58.9129   92.4374    3.2295 N.am    1  UNL1       -0.2681
     20 C          59.5199   91.5817    4.3015 C.2     1  UNL1        0.3082
     21 O          61.0082   91.4070    4.3688 O.2     1  UNL1       -0.2522
     22 N          58.6386   90.9005    5.3061 N.am    1  UNL1       -0.2681
     23 H          57.9361   92.5520    3.1853 H       1  UNL1        0.1564
     24 H          57.6618   91.0151    5.2619 H       1  UNL1        0.1564
     25 C          61.5568   94.4810    0.2155 C.ar    1  UNL1        0.1388
     26 C          61.0199   93.1089   -0.0660 C.ar    1  UNL1        0.0382
     27 C          60.1387   92.4278    0.9387 C.ar    1  UNL1        0.0178
     28 C          59.7943   93.1187    2.2248 C.ar    1  UNL1        0.0518
     29 C          60.3311   94.4907    2.5063 C.ar    1  UNL1        0.0178
     30 C          61.2124   95.1718    1.5016 C.ar    1  UNL1        0.0382
     31 C          63.7779   94.5794   -1.1287 C.3     1  UNL1        0.2525
     32 O          62.4381   95.1622   -0.7891 O.3     1  UNL1       -0.4714
     33 C          63.5784   85.7547   13.5824 C.ar    1  UNL1        0.0416
     34 C          64.6923   85.7002   14.5855 C.ar    1  UNL1        0.1217
     35 N          64.7136   84.3233   15.1802 N.ar    1  UNL1       -0.1676
     36 N          63.6128   83.5268   14.5447 N.ar    1  UNL1       -0.2470
     37 C          62.9112   84.4115   13.5572 C.ar    1  UNL1        0.0968
     38 C          63.2731   82.0968   14.8441 C.3     1  UNL1        0.1541
     39 C          62.8744   81.1720   13.7324 C.3     1  UNL1        0.1110
     40 C          61.4695   81.1466   14.2576 C.3     1  UNL1        0.0314
     41 C          64.2792   81.1975   13.2073 C.3     1  UNL1        0.0314
     42 O          62.4756   80.2473   12.6208 O.3     1  UNL1       -0.3848
     43 H          61.5331   80.0324   12.7013 H       1  UNL1        0.2103
@<TRIPOS>BOND
     1    31    32    1
     2    32    25    1
     3    25    26   ar
     4    26    27   ar
     5    27    28   ar
     6    28    19    1
     7    19    20   am
     8    20    21    2
     9    20    22   am
    10    22    13    1
    11    13    14   ar
    12    14    15   ar
    13    15    16   ar
    14    16     1    1
    15     1     2   ar
    16     2     3   ar
    17     3     4   ar
    18     4     5   ar
    19     5    33    1
    20    33    34   ar
    21    34    35   ar
    22    35    36   ar
    23    36    38    1
    24    38    39    1
    25    39    40    1
    26    39    41    1
    27    39    42    1
    28    36    37   ar
    29     5     6   ar
    30     6     7   ar
    31     7     8   ar
    32     8     9    1
    33     8    10   ar
    34    16    17   ar
    35    17    18   ar
    36    28    29   ar
    37    29    30   ar
    38    30    25   ar
    39    18    13   ar
    40    10     1   ar
    41    10     4   ar
    42    37    33   ar
    43    19    23    1
    44    22    24    1
    45    42    43    1
    46     9    11    1
    47     9    12    1
@<TRIPOS>MOLECULE
*****
 43 47 0 0 0
SMALL
GASTEIGER

@<TRIPOS>ATOM
      1 C          60.6881   87.6041    9.5671 C.ar    1  UNL1        0.0096
      2 C          60.4856   87.8743   11.0286 C.ar    1  UNL1        0.0355
      3 S          61.2028   86.8070   11.8009 S.2     1  UNL1       -0.0863
      4 C          61.8486   85.8773   10.8167 C.ar    1  UNL1        0.0337
      5 C          62.6852   84.6458   10.9993 C.ar    1  UNL1        0.0283
      6 C          63.2037   83.9068    9.8013 C.ar    1  UNL1        0.1008
      7 N          62.8856   84.3995    8.4207 N.ar    1  UNL1       -0.2296
      8 C          62.0490   85.6311    8.2381 C.ar    1  UNL1        0.1258
      9 N          61.7308   86.1238    6.8575 N.pl3   1  UNL1       -0.3426
     10 C          61.5305   86.3699    9.4361 C.ar    1  UNL1        0.0377
     11 H          62.0711   85.6388    6.0712 H       1  UNL1        0.1437
     12 H          61.1817   86.9321    6.7377 H       1  UNL1        0.1437
     13 C          59.0551   90.0643    6.1713 C.ar    1  UNL1        0.0516
     14 C          60.1001   90.6405    7.0801 C.ar    1  UNL1        0.0147
     15 C          60.6445   89.8205    8.2121 C.ar    1  UNL1        0.0013
     16 C          60.1438   88.4242    8.4352 C.ar    1  UNL1        0.0007
     17 C          59.0987   87.8481    7.5264 C.ar    1  UNL1        0.0013
     18 C          58.5543   88.6681    6.3945 C.ar    1  UNL1        0.0147
     19 N          58.9044   92.4172    2.9790 N.am    1  UNL1       -0.2681
     20 C          59.4487   91.5971    4.1109 C.2     1  UNL1        0.3082
     21 O          60.9310   91.4897    4.3142 O.2     1  UNL1       -0.2522
     22 N          58.5107   90.8844    5.0394 N.am    1  UNL1       -0.2681
     23 H          57.9316   92.4877    2.8456 H       1  UNL1        0.1564
     24 H          57.5379   90.9549    4.9060 H       1  UNL1        0.1564
     25 C          61.7183   94.5553    0.1932 C.ar    1  UNL1        0.1388
     26 C          61.1613   95.2685    1.3895 C.ar    1  UNL1        0.0382
     27 C          60.2234   94.5558    2.3180 C.ar    1  UNL1        0.0178
     28 C          59.8424   93.1299    2.0504 C.ar    1  UNL1        0.0518
     29 C          60.3995   92.4167    0.8541 C.ar    1  UNL1        0.0178
     30 C          61.3374   93.1294   -0.0744 C.ar    1  UNL1        0.0382
     31 C          63.8530   94.5518   -1.2877 C.3     1  UNL1        0.2525
     32 O          62.6563   95.2680   -0.7354 O.3     1  UNL1       -0.4714
     33 C          63.0034   84.1531   12.3800 C.ar    1  UNL1        0.0416
     34 C          63.2986   82.7333   12.7632 C.ar    1  UNL1        0.1217
     35 N          63.5598   82.6964   14.2398 N.ar    1  UNL1       -0.1676
     36 N          63.4260   84.0935   14.7692 N.ar    1  UNL1       -0.2470
     37 C          63.0821   84.9938   13.6198 C.ar    1  UNL1        0.0968
     38 C          63.6047   84.5161   16.1973 C.3     1  UNL1        0.1541
     39 C          63.4793   85.9630   16.5726 C.3     1  UNL1        0.1110
     40 C          64.6640   86.2889   15.7122 C.3     1  UNL1        0.0314
     41 C          62.2945   85.6371   17.4329 C.3     1  UNL1        0.0314
     42 O          63.3538   87.4099   16.9479 O.3     1  UNL1       -0.3848
     43 H          64.0491   87.9205   16.5043 H       1  UNL1        0.2103
@<TRIPOS>BOND
     1    31    32    1
     2    32    25    1
     3    25    26   ar
     4    26    27   ar
     5    27    28   ar
     6    28    19    1
     7    19    20   am
     8    20    21    2
     9    20    22   am
    10    22    13    1
    11    13    14   ar
    12    14    15   ar
    13    15    16   ar
    14    16     1    1
    15     1     2   ar
    16     2     3   ar
    17     3     4   ar
    18     4     5   ar
    19     5    33    1
    20    33    34   ar
    21    34    35   ar
    22    35    36   ar
    23    36    38    1
    24    38    39    1
    25    39    40    1
    26    39    41    1
    27    39    42    1
    28    36    37   ar
    29     5     6   ar
    30     6     7   ar
    31     7     8   ar
    32     8     9    1
    33     8    10   ar
    34    16    17   ar
    35    17    18   ar
    36    28    29   ar
    37    29    30   ar
    38    30    25   ar
    39    18    13   ar
    40    10     1   ar
    41    10     4   ar
    42    37    33   ar
    43    19    23    1
    44    22    24    1
    45    42    43    1
    46     9    11    1
    47     9    12    1
