@<TRIPOS>MOLECULE
*****
 25 27 0 0 0
SMALL
GASTEIGER

@<TRIPOS>ATOM
      1 O          61.2750   89.3316    9.4521 O.2     1  UNL1       -0.2262
      2 C          61.8557   89.1529   10.8235 C.2     1  UNL1        0.4052
      3 N          62.9134   90.0942   11.3187 N.am    1  UNL1       -0.2460
      4 C          63.4941   89.9154   12.6901 C.3     1  UNL1        0.0968
      5 C          64.5518   90.8567   13.1852 C.3     1  UNL1        0.0234
      6 C          65.0289   91.9768   12.3089 C.3     1  UNL1        0.0230
      7 C          64.4482   92.1556   10.9375 C.3     1  UNL1        0.0234
      8 C          63.3904   91.2142   10.4424 C.3     1  UNL1        0.0968
      9 O          61.3786   88.0328   11.6998 O.3     1  UNL1       -0.4295
     10 C          60.9076   86.7482   11.0852 C.3     1  UNL1        0.2367
     11 C          61.9033   85.7058   10.6703 C.ar    1  UNL1        0.0213
     12 C          62.4289   84.7273   11.6783 C.ar    1  UNL1       -0.0007
     13 C          63.4245   83.6850   11.2634 C.ar    1  UNL1       -0.0002
     14 C          63.8946   83.6212    9.8404 C.ar    1  UNL1       -0.0000
     15 C          63.3690   84.5997    8.8323 C.ar    1  UNL1       -0.0002
     16 C          62.3734   85.6420    9.2473 C.ar    1  UNL1       -0.0007
     17 C          66.0866   92.9181   12.8041 C.3     1  UNL1        0.0882
     18 N          66.0000   94.3804   12.4813 N.pl3   1  UNL1       -0.3180
     19 H          65.6596   95.0136   13.1539 H       1  UNL1        0.1482
     20 C          66.4319   94.8779   11.1338 C.ar    1  UNL1        0.1318
     21 C          65.8121   96.1163   10.5574 C.ar    1  UNL1        0.0548
     22 C          66.2442   96.6137    9.2098 C.ar    1  UNL1        0.1035
     23 N          67.2959   95.8728    8.4386 N.ar    1  UNL1       -0.2223
     24 C          67.9157   94.6344    9.0150 C.ar    1  UNL1        0.2001
     25 N          67.4837   94.1369   10.3625 N.ar    1  UNL1       -0.2092
@<TRIPOS>BOND
     1     1     2    2
     2     2     9    1
     3     9    10    1
     4    10    11    1
     5    11    12   ar
     6    12    13   ar
     7    13    14   ar
     8    14    15   ar
     9    15    16   ar
    10     2     3   am
    11     3     4    1
    12     4     5    1
    13     5     6    1
    14     6    17    1
    15    17    18    1
    16    18    20    1
    17    20    21   ar
    18    21    22   ar
    19    22    23   ar
    20    23    24   ar
    21    24    25   ar
    22     6     7    1
    23     7     8    1
    24    16    11   ar
    25     8     3    1
    26    25    20   ar
    27    18    19    1
@<TRIPOS>MOLECULE
*****
 25 27 0 0 0
SMALL
GASTEIGER

@<TRIPOS>ATOM
      1 O          60.9596   89.4821    9.2260 O.2     1  UNL1       -0.2262
      2 C          61.4348   89.1444   10.6081 C.2     1  UNL1        0.4052
      3 N          62.5233   89.9557   11.2461 N.am    1  UNL1       -0.2460
      4 C          62.9985   89.6180   12.6282 C.3     1  UNL1        0.0968
      5 C          64.0870   90.4293   13.2661 C.3     1  UNL1        0.0234
      6 C          64.7003   91.5784   12.5220 C.3     1  UNL1        0.0230
      7 C          64.2250   91.9160   11.1399 C.3     1  UNL1        0.0234
      8 C          63.1365   91.1047   10.5019 C.3     1  UNL1        0.0968
      9 O          60.8216   87.9954   11.3523 O.3     1  UNL1       -0.4295
     10 C          61.3231   86.6004   11.1234 C.3     1  UNL1        0.2367
     11 C          61.4764   86.0784    9.7255 C.ar    1  UNL1        0.0213
     12 C          62.7590   85.4236    9.3059 C.ar    1  UNL1       -0.0007
     13 C          62.9123   84.9016    7.9080 C.ar    1  UNL1       -0.0002
     14 C          61.7829   85.0344    6.9298 C.ar    1  UNL1       -0.0000
     15 C          60.5003   85.6891    7.3494 C.ar    1  UNL1       -0.0002
     16 C          60.3470   86.2111    8.7473 C.ar    1  UNL1       -0.0007
     17 C          65.7887   92.3897   13.1599 C.3     1  UNL1        0.0882
     18 N          67.1771   92.3594   12.5930 N.pl3   1  UNL1       -0.3180
     19 H          67.9137   91.9671   13.1153 H       1  UNL1        0.1482
     20 C          67.4433   92.9270   11.2303 C.ar    1  UNL1        0.1318
     21 C          68.1468   92.0980   10.1969 C.ar    1  UNL1        0.0548
     22 C          68.4130   92.6656    8.8341 C.ar    1  UNL1        0.1035
     23 N          67.9757   94.0621    8.5048 N.ar    1  UNL1       -0.2223
     24 C          67.2722   94.8910    9.5382 C.ar    1  UNL1        0.2001
     25 N          67.0060   94.3235   10.9009 N.ar    1  UNL1       -0.2092
@<TRIPOS>BOND
     1     1     2    2
     2     2     9    1
     3     9    10    1
     4    10    11    1
     5    11    12   ar
     6    12    13   ar
     7    13    14   ar
     8    14    15   ar
     9    15    16   ar
    10     2     3   am
    11     3     4    1
    12     4     5    1
    13     5     6    1
    14     6    17    1
    15    17    18    1
    16    18    20    1
    17    20    21   ar
    18    21    22   ar
    19    22    23   ar
    20    23    24   ar
    21    24    25   ar
    22     6     7    1
    23     7     8    1
    24    16    11   ar
    25     8     3    1
    26    25    20   ar
    27    18    19    1
@<TRIPOS>MOLECULE
*****
 25 27 0 0 0
SMALL
GASTEIGER

@<TRIPOS>ATOM
      1 O          63.4203   83.0079   15.6902 O.2     1  UNL1       -0.2262
      2 C          63.9175   84.0803   14.7669 C.2     1  UNL1        0.4052
      3 N          63.8076   85.5225   15.1643 N.am    1  UNL1       -0.2460
      4 C          64.3049   86.5949   14.2409 C.3     1  UNL1        0.0968
      5 C          64.1949   88.0371   14.6383 C.3     1  UNL1        0.0234
      6 C          63.5877   88.4069   15.9592 C.3     1  UNL1        0.0230
      7 C          63.0904   87.3345   16.8825 C.3     1  UNL1        0.0234
      8 C          63.2004   85.8922   16.4851 C.3     1  UNL1        0.0968
      9 O          64.5248   83.7105   13.4460 O.3     1  UNL1       -0.4295
     10 C          63.6564   83.1826   12.3428 C.3     1  UNL1        0.2367
     11 C          63.1777   84.1030   11.2594 C.ar    1  UNL1        0.0213
     12 C          62.1855   85.1824   11.5763 C.ar    1  UNL1       -0.0007
     13 C          61.7069   86.1027   10.4929 C.ar    1  UNL1       -0.0002
     14 C          62.2204   85.9437    9.0926 C.ar    1  UNL1       -0.0000
     15 C          63.2126   84.8643    8.7756 C.ar    1  UNL1       -0.0002
     16 C          63.6912   83.9440    9.8590 C.ar    1  UNL1       -0.0007
     17 C          63.4777   89.8491   16.3566 C.3     1  UNL1        0.0882
     18 N          63.5034   90.9204   15.3070 N.pl3   1  UNL1       -0.3180
     19 H          62.6700   91.1882   14.8564 H       1  UNL1        0.1482
     20 C          64.7988   91.5836   14.9438 C.ar    1  UNL1        0.1318
     21 C          65.3207   91.4921   13.5405 C.ar    1  UNL1        0.0548
     22 C          66.6162   92.1554   13.1773 C.ar    1  UNL1        0.1035
     23 N          67.3898   92.9101   14.2175 N.ar    1  UNL1       -0.2223
     24 C          66.8679   93.0016   15.6208 C.ar    1  UNL1        0.2001
     25 N          65.5725   92.3384   15.9840 N.ar    1  UNL1       -0.2092
@<TRIPOS>BOND
     1     1     2    2
     2     2     9    1
     3     9    10    1
     4    10    11    1
     5    11    12   ar
     6    12    13   ar
     7    13    14   ar
     8    14    15   ar
     9    15    16   ar
    10     2     3   am
    11     3     4    1
    12     4     5    1
    13     5     6    1
    14     6    17    1
    15    17    18    1
    16    18    20    1
    17    20    21   ar
    18    21    22   ar
    19    22    23   ar
    20    23    24   ar
    21    24    25   ar
    22     6     7    1
    23     7     8    1
    24    16    11   ar
    25     8     3    1
    26    25    20   ar
    27    18    19    1
@<TRIPOS>MOLECULE
*****
 25 27 0 0 0
SMALL
GASTEIGER

@<TRIPOS>ATOM
      1 O          60.0934   88.4640   12.1258 O.2     1  UNL1       -0.2262
      2 C          60.8635   89.2116   11.0779 C.2     1  UNL1        0.4052
      3 N          62.0729   90.0107   11.4633 N.am    1  UNL1       -0.2460
      4 C          62.8430   90.7583   10.4154 C.3     1  UNL1        0.0968
      5 C          64.0524   91.5575   10.8007 C.3     1  UNL1        0.0234
      6 C          64.4918   91.6092   12.2341 C.3     1  UNL1        0.0230
      7 C          63.7218   90.8616   13.2820 C.3     1  UNL1        0.0234
      8 C          62.5123   90.0624   12.8965 C.3     1  UNL1        0.0968
      9 O          60.4241   89.1599    9.6446 O.3     1  UNL1       -0.4295
     10 C          59.8561   87.8919    9.0795 C.3     1  UNL1        0.2367
     11 C          60.7719   86.8433    8.5211 C.ar    1  UNL1        0.0213
     12 C          60.3247   85.9934    7.3688 C.ar    1  UNL1       -0.0007
     13 C          61.2405   84.9449    6.8105 C.ar    1  UNL1       -0.0002
     14 C          62.6035   84.7462    7.4044 C.ar    1  UNL1       -0.0000
     15 C          63.0507   85.5960    8.5567 C.ar    1  UNL1       -0.0002
     16 C          62.1349   86.6445    9.1150 C.ar    1  UNL1       -0.0007
     17 C          65.7013   92.4083   12.6194 C.3     1  UNL1        0.0882
     18 N          65.7466   93.8816   12.3411 N.pl3   1  UNL1       -0.3180
     19 H          65.3730   94.5175   12.9932 H       1  UNL1        0.1482
     20 C          66.3612   94.3860   11.0692 C.ar    1  UNL1        0.1318
     21 C          65.9146   95.6947   10.4878 C.ar    1  UNL1        0.0548
     22 C          66.5292   96.1991    9.2159 C.ar    1  UNL1        0.1035
     23 N          67.5905   95.3948    8.5253 N.ar    1  UNL1       -0.2223
     24 C          68.0371   94.0862    9.1067 C.ar    1  UNL1        0.2001
     25 N          67.4225   93.5818   10.3786 N.ar    1  UNL1       -0.2092
@<TRIPOS>BOND
     1     1     2    2
     2     2     9    1
     3     9    10    1
     4    10    11    1
     5    11    12   ar
     6    12    13   ar
     7    13    14   ar
     8    14    15   ar
     9    15    16   ar
    10     2     3   am
    11     3     4    1
    12     4     5    1
    13     5     6    1
    14     6    17    1
    15    17    18    1
    16    18    20    1
    17    20    21   ar
    18    21    22   ar
    19    22    23   ar
    20    23    24   ar
    21    24    25   ar
    22     6     7    1
    23     7     8    1
    24    16    11   ar
    25     8     3    1
    26    25    20   ar
    27    18    19    1
@<TRIPOS>MOLECULE
*****
 25 27 0 0 0
SMALL
GASTEIGER

@<TRIPOS>ATOM
      1 O          63.3799   91.9203   16.4328 O.2     1  UNL1       -0.2262
      2 C          63.8428   91.0290   15.3186 C.2     1  UNL1        0.4052
      3 N          63.7929   89.5386   15.4804 N.am    1  UNL1       -0.2460
      4 C          64.2558   88.6473   14.3663 C.3     1  UNL1        0.0968
      5 C          64.2059   87.1569   14.5281 C.3     1  UNL1        0.0234
      6 C          63.6930   86.5578   15.8040 C.3     1  UNL1        0.0230
      7 C          63.2301   87.4491   16.9182 C.3     1  UNL1        0.0234
      8 C          63.2800   88.9395   16.7563 C.3     1  UNL1        0.0968
      9 O          64.3557   91.6282   14.0427 O.3     1  UNL1       -0.4295
     10 C          65.8013   92.0094   13.9210 C.3     1  UNL1        0.2367
     11 C          66.3818   92.3302   12.5756 C.ar    1  UNL1        0.0213
     12 C          67.7170   91.7713   12.1822 C.ar    1  UNL1       -0.0007
     13 C          68.2974   92.0921   10.8368 C.ar    1  UNL1       -0.0002
     14 C          67.5425   92.9718    9.8847 C.ar    1  UNL1       -0.0000
     15 C          66.2073   93.5307   10.2781 C.ar    1  UNL1       -0.0002
     16 C          65.6269   93.2099   11.6235 C.ar    1  UNL1       -0.0007
     17 C          63.6431   85.0674   15.9658 C.3     1  UNL1        0.0882
     18 N          64.6193   84.1998   15.2281 N.pl3   1  UNL1       -0.3180
     19 H          65.5753   84.2256   15.4620 H       1  UNL1        0.1482
     20 C          64.1390   83.2928   14.1342 C.ar    1  UNL1        0.1318
     21 C          64.2199   83.7355   12.7033 C.ar    1  UNL1        0.0548
     22 C          63.7396   82.8285   11.6093 C.ar    1  UNL1        0.1035
     23 N          63.1784   81.4789   11.9463 N.ar    1  UNL1       -0.2223
     24 C          63.0975   81.0362   13.3772 C.ar    1  UNL1        0.2001
     25 N          63.5778   81.9431   14.4711 N.ar    1  UNL1       -0.2092
@<TRIPOS>BOND
     1     1     2    2
     2     2     9    1
     3     9    10    1
     4    10    11    1
     5    11    12   ar
     6    12    13   ar
     7    13    14   ar
     8    14    15   ar
     9    15    16   ar
    10     2     3   am
    11     3     4    1
    12     4     5    1
    13     5     6    1
    14     6    17    1
    15    17    18    1
    16    18    20    1
    17    20    21   ar
    18    21    22   ar
    19    22    23   ar
    20    23    24   ar
    21    24    25   ar
    22     6     7    1
    23     7     8    1
    24    16    11   ar
    25     8     3    1
    26    25    20   ar
    27    18    19    1
@<TRIPOS>MOLECULE
*****
 25 27 0 0 0
SMALL
GASTEIGER

@<TRIPOS>ATOM
      1 O          61.0996   86.5405    9.6496 O.2     1  UNL1       -0.2262
      2 C          61.7671   86.7755   10.9722 C.2     1  UNL1        0.4052
      3 N          62.4081   88.0999   11.2640 N.am    1  UNL1       -0.2460
      4 C          63.0756   88.3349   12.5866 C.3     1  UNL1        0.0968
      5 C          63.7166   89.6592   12.8784 C.3     1  UNL1        0.0234
      6 C          63.6901   90.7486   11.8475 C.3     1  UNL1        0.0230
      7 C          63.0226   90.5136   10.5250 C.3     1  UNL1        0.0234
      8 C          62.3816   89.1892   10.2332 C.3     1  UNL1        0.0968
      9 O          61.7936   85.6861   12.0030 O.3     1  UNL1       -0.4295
     10 C          62.9671   84.7550   12.0802 C.3     1  UNL1        0.2367
     11 C          62.7657   83.3271   12.4934 C.ar    1  UNL1        0.0213
     12 C          63.0503   82.2185   11.5238 C.ar    1  UNL1       -0.0007
     13 C          62.8488   80.7907   11.9370 C.ar    1  UNL1       -0.0002
     14 C          62.3629   80.4715   13.3197 C.ar    1  UNL1       -0.0000
     15 C          62.0783   81.5800   14.2892 C.ar    1  UNL1       -0.0002
     16 C          62.2797   83.0078   13.8761 C.ar    1  UNL1       -0.0007
     17 C          64.3311   92.0730   12.1393 C.3     1  UNL1        0.0882
     18 N          65.8229   92.1740   12.2596 N.pl3   1  UNL1       -0.3180
     19 H          66.2919   91.6966   12.9817 H       1  UNL1        0.1482
     20 C          66.6000   93.0022   11.2798 C.ar    1  UNL1        0.1318
     21 C          66.2387   94.4416   11.0617 C.ar    1  UNL1        0.0548
     22 C          67.0158   95.2698   10.0818 C.ar    1  UNL1        0.1035
     23 N          68.1542   94.6586    9.3200 N.ar    1  UNL1       -0.2223
     24 C          68.5155   93.2192    9.5380 C.ar    1  UNL1        0.2001
     25 N          67.7384   92.3909   10.5179 N.ar    1  UNL1       -0.2092
@<TRIPOS>BOND
     1     1     2    2
     2     2     9    1
     3     9    10    1
     4    10    11    1
     5    11    12   ar
     6    12    13   ar
     7    13    14   ar
     8    14    15   ar
     9    15    16   ar
    10     2     3   am
    11     3     4    1
    12     4     5    1
    13     5     6    1
    14     6    17    1
    15    17    18    1
    16    18    20    1
    17    20    21   ar
    18    21    22   ar
    19    22    23   ar
    20    23    24   ar
    21    24    25   ar
    22     6     7    1
    23     7     8    1
    24    16    11   ar
    25     8     3    1
    26    25    20   ar
    27    18    19    1
@<TRIPOS>MOLECULE
*****
 25 27 0 0 0
SMALL
GASTEIGER

@<TRIPOS>ATOM
      1 O          62.6387   90.6295   11.0052 O.2     1  UNL1       -0.2262
      2 C          63.3669   90.4582   12.3054 C.2     1  UNL1        0.4052
      3 N          63.5647   89.0865   12.8792 N.am    1  UNL1       -0.2460
      4 C          64.2928   88.9152   14.1793 C.3     1  UNL1        0.0968
      5 C          64.4907   87.5435   14.7531 C.3     1  UNL1        0.0234
      6 C          63.9603   86.3430   14.0267 C.3     1  UNL1        0.0230
      7 C          63.2322   86.5143   12.7265 C.3     1  UNL1        0.0234
      8 C          63.0344   87.8861   12.1527 C.3     1  UNL1        0.0968
      9 O          63.8972   91.6587   13.0318 O.3     1  UNL1       -0.4295
     10 C          65.2764   92.1673   12.7332 C.3     1  UNL1        0.2367
     11 C          66.2928   92.2682   13.8318 C.ar    1  UNL1        0.0213
     12 C          67.7510   92.1029   13.5219 C.ar    1  UNL1       -0.0007
     13 C          68.7673   92.2039   14.6205 C.ar    1  UNL1       -0.0002
     14 C          68.3253   92.4702   16.0289 C.ar    1  UNL1       -0.0000
     15 C          66.8671   92.6356   16.3388 C.ar    1  UNL1       -0.0002
     16 C          65.8508   92.5346   15.2402 C.ar    1  UNL1       -0.0007
     17 C          64.1581   84.9713   14.6004 C.3     1  UNL1        0.0882
     18 N          64.8806   83.9234   13.8068 N.pl3   1  UNL1       -0.3180
     19 H          65.8449   84.0164   13.6314 H       1  UNL1        0.1482
     20 C          64.1340   82.7337   13.2805 C.ar    1  UNL1        0.1318
     21 C          63.9349   82.5666   11.8031 C.ar    1  UNL1        0.0548
     22 C          63.1882   81.3768   11.2768 C.ar    1  UNL1        0.1035
     23 N          62.6406   80.3542   12.2278 N.ar    1  UNL1       -0.2223
     24 C          62.8397   80.5213   13.7051 C.ar    1  UNL1        0.2001
     25 N          63.5863   81.7110   14.2314 N.ar    1  UNL1       -0.2092
@<TRIPOS>BOND
     1     1     2    2
     2     2     9    1
     3     9    10    1
     4    10    11    1
     5    11    12   ar
     6    12    13   ar
     7    13    14   ar
     8    14    15   ar
     9    15    16   ar
    10     2     3   am
    11     3     4    1
    12     4     5    1
    13     5     6    1
    14     6    17    1
    15    17    18    1
    16    18    20    1
    17    20    21   ar
    18    21    22   ar
    19    22    23   ar
    20    23    24   ar
    21    24    25   ar
    22     6     7    1
    23     7     8    1
    24    16    11   ar
    25     8     3    1
    26    25    20   ar
    27    18    19    1
@<TRIPOS>MOLECULE
*****
 25 27 0 0 0
SMALL
GASTEIGER

@<TRIPOS>ATOM
      1 O          65.5890   91.4375   14.8242 O.2     1  UNL1       -0.2262
      2 C          64.9032   91.6551   13.5080 C.2     1  UNL1        0.4052
      3 N          64.1522   90.5307   12.8587 N.am    1  UNL1       -0.2460
      4 C          63.4663   90.7483   11.5426 C.3     1  UNL1        0.0968
      5 C          62.7153   89.6239   10.8932 C.3     1  UNL1        0.0234
      6 C          62.6502   88.2818   11.5601 C.3     1  UNL1        0.0230
      7 C          63.3361   88.0642   12.8762 C.3     1  UNL1        0.0234
      8 C          64.0871   89.1887   13.5255 C.3     1  UNL1        0.0968
      9 O          64.9683   92.9972   12.8412 O.3     1  UNL1       -0.4295
     10 C          66.2970   93.6470   12.5916 C.3     1  UNL1        0.2367
     11 C          66.9561   93.5154   11.2505 C.ar    1  UNL1        0.0213
     12 C          67.6555   92.2412   10.8804 C.ar    1  UNL1       -0.0007
     13 C          68.3146   92.1096    9.5394 C.ar    1  UNL1       -0.0002
     14 C          68.2742   93.2524    8.5685 C.ar    1  UNL1       -0.0000
     15 C          67.5748   94.5266    8.9387 C.ar    1  UNL1       -0.0002
     16 C          66.9157   94.6581   10.2797 C.ar    1  UNL1       -0.0007
     17 C          61.8992   87.1574   10.9107 C.3     1  UNL1        0.0882
     18 N          61.6658   85.8795   11.6609 N.pl3   1  UNL1       -0.3180
     19 H          60.8525   85.7694   12.2045 H       1  UNL1        0.1482
     20 C          62.6716   84.7695   11.5826 C.ar    1  UNL1        0.1318
     21 C          63.1393   84.2739   10.2464 C.ar    1  UNL1        0.0548
     22 C          64.1451   83.1638   10.1682 C.ar    1  UNL1        0.1035
     23 N          64.6833   82.5494   11.4263 N.ar    1  UNL1       -0.2223
     24 C          64.2157   83.0451   12.7626 C.ar    1  UNL1        0.2001
     25 N          63.2099   84.1551   12.8408 N.ar    1  UNL1       -0.2092
@<TRIPOS>BOND
     1     1     2    2
     2     2     9    1
     3     9    10    1
     4    10    11    1
     5    11    12   ar
     6    12    13   ar
     7    13    14   ar
     8    14    15   ar
     9    15    16   ar
    10     2     3   am
    11     3     4    1
    12     4     5    1
    13     5     6    1
    14     6    17    1
    15    17    18    1
    16    18    20    1
    17    20    21   ar
    18    21    22   ar
    19    22    23   ar
    20    23    24   ar
    21    24    25   ar
    22     6     7    1
    23     7     8    1
    24    16    11   ar
    25     8     3    1
    26    25    20   ar
    27    18    19    1
@<TRIPOS>MOLECULE
*****
 25 27 0 0 0
SMALL
GASTEIGER

@<TRIPOS>ATOM
      1 O          60.8430   87.4888    8.7079 O.2     1  UNL1       -0.2262
      2 C          61.4673   87.3440   10.0641 C.2     1  UNL1        0.4052
      3 N          62.1971   88.5001   10.6812 N.am    1  UNL1       -0.2460
      4 C          62.8213   88.3553   12.0374 C.3     1  UNL1        0.0968
      5 C          63.5511   89.5115   12.6544 C.3     1  UNL1        0.0234
      6 C          63.6566   90.8125   11.9152 C.3     1  UNL1        0.0230
      7 C          63.0323   90.9573   10.5590 C.3     1  UNL1        0.0234
      8 C          62.3025   89.8010    9.9420 C.3     1  UNL1        0.0968
      9 O          61.3618   86.0430   10.8033 O.3     1  UNL1       -0.4295
     10 C          62.4302   85.0020   10.6456 C.3     1  UNL1        0.2367
     11 C          62.8092   84.1340   11.8089 C.ar    1  UNL1        0.0213
     12 C          62.7746   82.6406   11.6729 C.ar    1  UNL1       -0.0007
     13 C          63.1536   81.7727   12.8361 C.ar    1  UNL1       -0.0002
     14 C          63.5671   82.3982   14.1353 C.ar    1  UNL1       -0.0000
     15 C          63.6016   83.8916   14.2712 C.ar    1  UNL1       -0.0002
     16 C          63.2227   84.7595   13.1080 C.ar    1  UNL1       -0.0007
     17 C          64.3863   91.9686   12.5323 C.3     1  UNL1        0.0882
     18 N          65.8806   92.0520   12.4319 N.pl3   1  UNL1       -0.3180
     19 H          66.3210   91.9617   11.5560 H       1  UNL1        0.1482
     20 C          66.7041   92.2732   13.6660 C.ar    1  UNL1        0.1318
     21 C          66.0301   92.4869   14.9889 C.ar    1  UNL1        0.0548
     22 C          66.8536   92.7080   16.2231 C.ar    1  UNL1        0.1035
     23 N          68.3510   92.7154   16.1342 N.ar    1  UNL1       -0.2223
     24 C          69.0249   92.5018   14.8113 C.ar    1  UNL1        0.2001
     25 N          68.2015   92.2806   13.5772 N.ar    1  UNL1       -0.2092
@<TRIPOS>BOND
     1     1     2    2
     2     2     9    1
     3     9    10    1
     4    10    11    1
     5    11    12   ar
     6    12    13   ar
     7    13    14   ar
     8    14    15   ar
     9    15    16   ar
    10     2     3   am
    11     3     4    1
    12     4     5    1
    13     5     6    1
    14     6    17    1
    15    17    18    1
    16    18    20    1
    17    20    21   ar
    18    21    22   ar
    19    22    23   ar
    20    23    24   ar
    21    24    25   ar
    22     6     7    1
    23     7     8    1
    24    16    11   ar
    25     8     3    1
    26    25    20   ar
    27    18    19    1
