@<TRIPOS>MOLECULE
*****
 29 33 0 0 0
SMALL
GASTEIGER

@<TRIPOS>ATOM
      1 C          63.0521   84.6141   15.4942 C.ar    1  UNL1        0.1902
      2 N          62.4176   84.5563   16.8522 N.ar    1  UNL1       -0.1269
      3 N          62.4131   85.9442   17.4211 N.ar    1  UNL1       -0.1316
      4 C          63.0447   86.8598   16.4147 C.ar    1  UNL1        0.1615
      5 N          63.4396   86.0377   15.2238 N.ar    1  UNL1       -0.2940
      6 C          64.1011   86.6916   14.0471 C.3     1  UNL1        0.1302
      7 C          64.3677   88.1677   14.0612 C.3     1  UNL1        0.1186
      8 N          63.9728   88.9898   15.2521 N.am    1  UNL1       -0.2688
      9 C          64.2394   90.4658   15.2663 C.2     1  UNL1        0.2493
     10 O          63.8444   91.2879   16.4572 O.2     1  UNL1       -0.2699
     11 C          63.3113   88.3358   16.4289 C.3     1  UNL1        0.1343
     12 C          62.9164   89.1579   17.6198 C.3     1  UNL1        0.0298
     13 C          62.5209   79.9320   13.1117 C.3     1  UNL1        0.0527
     14 C          63.0179   81.3001   13.4739 C.ar    1  UNL1        0.0665
     15 C          64.1526   82.0285   12.8166 C.ar    1  UNL1        0.0517
     16 S          64.3035   83.3587   13.4935 S.2     1  UNL1       -0.0633
     17 C          63.2621   83.4522   14.5690 C.ar    1  UNL1        0.1462
     18 N          62.4676   82.1800   14.5569 N.ar    1  UNL1       -0.2395
     19 C          64.9009   91.1198   14.0895 C.ar    1  UNL1        0.0536
     20 C          66.3395   91.5360   14.1735 C.ar    1  UNL1        0.0045
     21 C          67.0010   92.1900   12.9967 C.ar    1  UNL1        0.0006
     22 C          66.2238   92.4277   11.7360 C.ar    1  UNL1        0.0060
     23 C          64.7852   92.0115   11.6520 C.ar    1  UNL1        0.0006
     24 C          64.1237   91.3575   12.8287 C.ar    1  UNL1        0.0045
     25 C          66.8853   93.0817   10.5592 C.ar    1  UNL1        0.0295
     26 C          67.9312   92.4634    9.6796 C.ar    1  UNL1        0.0070
     27 C          68.3093   93.4683    8.6322 C.ar    1  UNL1        0.0075
     28 C          67.4970   94.7079    8.8644 C.ar    1  UNL1        0.0354
     29 S          66.6169   94.4689   10.0555 S.2     1  UNL1       -0.0864
@<TRIPOS>BOND
     1    13    14    1
     2    14    15   ar
     3    15    16   ar
     4    16    17   ar
     5    17     1    1
     6     1     2   ar
     7     2     3   ar
     8     3     4   ar
     9     4     5   ar
    10     5     6    1
    11     6     7    1
    12     7     8    1
    13     8     9   am
    14     9    10    2
    15     9    19    1
    16    19    20   ar
    17    20    21   ar
    18    21    22   ar
    19    22    25    1
    20    25    26   ar
    21    26    27   ar
    22    27    28   ar
    23    28    29   ar
    24    22    23   ar
    25    23    24   ar
    26     8    11    1
    27    11    12    1
    28    17    18   ar
    29    18    14   ar
    30     5     1   ar
    31    24    19   ar
    32    11     4    1
    33    29    25   ar
@<TRIPOS>MOLECULE
*****
 29 33 0 0 0
SMALL
GASTEIGER

@<TRIPOS>ATOM
      1 C          59.3345   88.7233    7.1301 C.ar    1  UNL1        0.1902
      2 N          58.7629   87.3425    7.0011 N.ar    1  UNL1       -0.1269
      3 N          59.3212   86.5041    8.1125 N.ar    1  UNL1       -0.1316
      4 C          60.2378   87.3667    8.9285 C.ar    1  UNL1        0.1615
      5 N          60.2460   88.7383    8.3213 N.ar    1  UNL1       -0.2940
      6 C          61.0824   89.8236    8.9316 C.3     1  UNL1        0.1302
      7 C          61.9107   89.5374   10.1490 C.3     1  UNL1        0.1186
      8 N          61.9025   88.1657   10.7562 N.am    1  UNL1       -0.2688
      9 C          62.7307   87.8795   11.9736 C.2     1  UNL1        0.2493
     10 O          62.7225   86.5079   12.5807 O.2     1  UNL1       -0.2699
     11 C          61.0660   87.0804   10.1459 C.3     1  UNL1        0.1343
     12 C          61.0578   85.7088   10.7530 C.3     1  UNL1        0.0298
     13 C          59.9571   92.7465    3.7675 C.3     1  UNL1        0.0527
     14 C          59.3315   91.7345    4.6810 C.ar    1  UNL1        0.0665
     15 C          57.8691   91.6121    4.9916 C.ar    1  UNL1        0.0517
     16 S          57.6922   90.4692    5.9469 S.2     1  UNL1       -0.0633
     17 C          59.0453   89.8853    6.2267 C.ar    1  UNL1        0.1462
     18 N          60.0584   90.6672    5.4443 N.ar    1  UNL1       -0.2395
     19 C          63.5671   88.9648   12.5838 C.ar    1  UNL1        0.0536
     20 C          63.7456   90.2685   11.8638 C.ar    1  UNL1        0.0045
     21 C          64.5821   91.3539   12.4742 C.ar    1  UNL1        0.0006
     22 C          65.2399   91.1355   13.8044 C.ar    1  UNL1        0.0060
     23 C          65.0613   89.8318   14.5243 C.ar    1  UNL1        0.0006
     24 C          64.2249   88.7464   13.9141 C.ar    1  UNL1        0.0045
     25 C          66.0763   92.2209   14.4147 C.ar    1  UNL1        0.0295
     26 C          66.6309   92.2284   15.8084 C.ar    1  UNL1        0.0070
     27 C          67.4023   93.5014   15.9935 C.ar    1  UNL1        0.0075
     28 C          67.3246   94.2807   14.7141 C.ar    1  UNL1        0.0354
     29 S          66.5050   93.4892   13.7383 S.2     1  UNL1       -0.0864
@<TRIPOS>BOND
     1    13    14    1
     2    14    15   ar
     3    15    16   ar
     4    16    17   ar
     5    17     1    1
     6     1     2   ar
     7     2     3   ar
     8     3     4   ar
     9     4     5   ar
    10     5     6    1
    11     6     7    1
    12     7     8    1
    13     8     9   am
    14     9    10    2
    15     9    19    1
    16    19    20   ar
    17    20    21   ar
    18    21    22   ar
    19    22    25    1
    20    25    26   ar
    21    26    27   ar
    22    27    28   ar
    23    28    29   ar
    24    22    23   ar
    25    23    24   ar
    26     8    11    1
    27    11    12    1
    28    17    18   ar
    29    18    14   ar
    30     5     1   ar
    31    24    19   ar
    32    11     4    1
    33    29    25   ar
@<TRIPOS>MOLECULE
*****
 29 33 0 0 0
SMALL
GASTEIGER

@<TRIPOS>ATOM
      1 C          64.1400   90.9218   14.3945 C.ar    1  UNL1        0.1902
      2 N          63.9744   91.5403   15.7509 N.ar    1  UNL1       -0.1269
      3 N          63.5912   90.4541   16.7119 N.ar    1  UNL1       -0.1316
      4 C          63.5201   89.1643   15.9493 C.ar    1  UNL1        0.1615
      5 N          63.8593   89.4534   14.5170 N.ar    1  UNL1       -0.2940
      6 C          63.8687   88.3423   13.5095 C.3     1  UNL1        0.1302
      7 C          63.5389   86.9419   13.9342 C.3     1  UNL1        0.1186
      8 N          63.1997   86.6528   15.3665 N.am    1  UNL1       -0.2688
      9 C          62.8699   85.2525   15.7912 C.2     1  UNL1        0.2493
     10 O          62.5307   84.9634   17.2235 O.2     1  UNL1       -0.2699
     11 C          63.1903   87.7641   16.3740 C.3     1  UNL1        0.1343
     12 C          62.8511   87.4750   17.8063 C.3     1  UNL1        0.0298
     13 C          66.4539   94.2687   11.0292 C.3     1  UNL1        0.0527
     14 C          65.5833   93.1832   11.5894 C.ar    1  UNL1        0.0665
     15 C          64.6249   92.3316   10.8107 C.ar    1  UNL1        0.0517
     16 S          63.9676   91.3808   11.7668 S.2     1  UNL1       -0.0633
     17 C          64.5198   91.6448   13.1362 C.ar    1  UNL1        0.1462
     18 N          65.5183   92.7588   13.0267 N.ar    1  UNL1       -0.2395
     19 C          62.8793   84.1414   14.7837 C.ar    1  UNL1        0.0536
     20 C          63.7436   84.2439   13.5620 C.ar    1  UNL1        0.0045
     21 C          63.7530   83.1327   12.5545 C.ar    1  UNL1        0.0006
     22 C          62.8981   81.9189   12.7686 C.ar    1  UNL1        0.0060
     23 C          62.0337   81.8164   13.9902 C.ar    1  UNL1        0.0006
     24 C          62.0243   82.9275   14.9978 C.ar    1  UNL1        0.0045
     25 C          62.9074   80.8077   11.7610 C.ar    1  UNL1        0.0295
     26 C          63.1959   80.9484   10.2958 C.ar    1  UNL1        0.0070
     27 C          63.0967   79.5883    9.6711 C.ar    1  UNL1        0.0075
     28 C          62.7469   78.6069   10.7503 C.ar    1  UNL1        0.0354
     29 S          62.6300   79.3606   12.0420 S.2     1  UNL1       -0.0864
@<TRIPOS>BOND
     1    13    14    1
     2    14    15   ar
     3    15    16   ar
     4    16    17   ar
     5    17     1    1
     6     1     2   ar
     7     2     3   ar
     8     3     4   ar
     9     4     5   ar
    10     5     6    1
    11     6     7    1
    12     7     8    1
    13     8     9   am
    14     9    10    2
    15     9    19    1
    16    19    20   ar
    17    20    21   ar
    18    21    22   ar
    19    22    25    1
    20    25    26   ar
    21    26    27   ar
    22    27    28   ar
    23    28    29   ar
    24    22    23   ar
    25    23    24   ar
    26     8    11    1
    27    11    12    1
    28    17    18   ar
    29    18    14   ar
    30     5     1   ar
    31    24    19   ar
    32    11     4    1
    33    29    25   ar
