@<TRIPOS>MOLECULE
*****
 28 31 0 0 0
SMALL
GASTEIGER

@<TRIPOS>ATOM
      1 C          64.5112   89.6688   14.3151 C.ar    1  UNL1        0.0504
      2 C          65.7301   90.4499   14.7074 C.ar    1  UNL1        0.0160
      3 C          66.1826   91.6064   13.8661 C.ar    1  UNL1        0.0200
      4 C          65.4163   91.9816   12.6325 C.ar    1  UNL1        0.1104
      5 C          64.1974   91.2004   12.2401 C.ar    1  UNL1        0.0200
      6 C          63.7449   90.0440   13.0814 C.ar    1  UNL1        0.0160
      7 O          63.8541   87.0415   13.0245 O.2     1  UNL1       -0.2748
      8 C          63.7300   87.1987   14.5111 C.2     1  UNL1        0.2260
      9 N          64.0585   88.5123   15.1564 N.am    1  UNL1       -0.2839
     10 H          63.9771   88.6154   16.1320 H       1  UNL1        0.1549
     11 C          63.2774   86.0422   15.3524 C.3     1  UNL1        0.0812
     12 C          62.8112   85.4985   16.6704 C.3     1  UNL1        0.0143
     13 C          62.9595   84.5828   15.4916 C.3     1  UNL1        0.0330
     14 C          62.8617   83.2117   14.8913 C.ar    1  UNL1       -0.0029
     15 C          61.5194   82.5684   14.7055 C.ar    1  UNL1       -0.0011
     16 C          61.4216   81.1972   14.1053 C.ar    1  UNL1        0.0204
     17 C          62.6660   80.4693   13.6908 C.ar    1  UNL1        0.0989
     18 N          64.0082   81.1127   13.8766 N.ar    1  UNL1       -0.2426
     19 C          64.1060   82.4839   14.4769 C.ar    1  UNL1        0.0946
     20 S          65.8690   93.1381   11.7912 S.O2    1  UNL1        0.0274
     21 O          66.8545   93.5252   12.8536 O.2     1  UNL1       -0.1642
     22 O          64.8834   92.7510   10.7287 O.2     1  UNL1       -0.1642
     23 C          66.3216   94.2946   10.9499 C.ar    1  UNL1        0.1103
     24 C          67.0654   94.0461    9.6712 C.ar    1  UNL1        0.0187
     25 C          67.5180   95.2025    8.8300 C.ar    1  UNL1        0.0013
     26 C          67.2269   96.6075    9.2674 C.ar    1  UNL1        0.0001
     27 C          66.4832   96.8560   10.5461 C.ar    1  UNL1        0.0013
     28 C          66.0305   95.6995   11.3874 C.ar    1  UNL1        0.0187
@<TRIPOS>BOND
     1     7     8    2
     2     8     9   am
     3     9     1    1
     4     1     2   ar
     5     2     3   ar
     6     3     4   ar
     7     4    20    1
     8    20    21    2
     9    20    22    2
    10    20    23    1
    11    23    24   ar
    12    24    25   ar
    13    25    26   ar
    14    26    27   ar
    15    27    28   ar
    16     4     5   ar
    17     5     6   ar
    18    11     8    1
    19    11    12    1
    20    12    13    1
    21    13    14    1
    22    14    15   ar
    23    15    16   ar
    24    16    17   ar
    25    17    18   ar
    26    18    19   ar
    27     6     1   ar
    28    13    11    1
    29    19    14   ar
    30    28    23   ar
    31     9    10    1
@<TRIPOS>MOLECULE
*****
 28 31 0 0 0
SMALL
GASTEIGER

@<TRIPOS>ATOM
      1 C          60.8888   88.7881    9.0807 C.ar    1  UNL1        0.0504
      2 C          61.8526   89.2267   10.1431 C.ar    1  UNL1        0.0160
      3 C          62.3920   88.2289   11.1246 C.ar    1  UNL1        0.0200
      4 C          61.9676   86.7924   11.0436 C.ar    1  UNL1        0.1104
      5 C          61.0039   86.3538    9.9812 C.ar    1  UNL1        0.0200
      6 C          60.4645   87.3516    8.9997 C.ar    1  UNL1        0.0160
      7 O          59.2266   87.8627    6.7610 O.2     1  UNL1       -0.2748
      8 C          59.5183   89.3232    6.9393 C.2     1  UNL1        0.2260
      9 N          60.3494   89.7859    8.0991 N.am    1  UNL1       -0.2839
     10 H          60.5408   90.7445    8.2161 H       1  UNL1        0.1549
     11 C          58.9788   90.3211    5.9578 C.3     1  UNL1        0.0812
     12 C          57.8228   91.0884    5.3880 C.3     1  UNL1        0.0143
     13 C          59.2005   91.2820    4.8276 C.3     1  UNL1        0.0330
     14 C          60.1240   91.9486    3.8515 C.ar    1  UNL1       -0.0029
     15 C          61.5783   91.5821    3.8246 C.ar    1  UNL1       -0.0011
     16 C          62.5018   92.2487    2.8485 C.ar    1  UNL1        0.0204
     17 C          61.9711   93.2819    1.8993 C.ar    1  UNL1        0.0989
     18 N          60.5168   93.6483    1.9262 N.ar    1  UNL1       -0.2426
     19 C          59.5933   92.9817    2.9023 C.ar    1  UNL1        0.0946
     20 S          62.5071   85.7946   12.0252 S.O2    1  UNL1        0.0274
     21 O          61.8696   84.6830   11.2455 O.2     1  UNL1       -0.1642
     22 O          63.1445   86.9061   12.8049 O.2     1  UNL1       -0.1642
     23 C          63.0465   84.7968   13.0067 C.ar    1  UNL1        0.1103
     24 C          63.8871   85.2583   14.1601 C.ar    1  UNL1        0.0187
     25 C          64.4265   84.2605   15.1416 C.ar    1  UNL1        0.0013
     26 C          64.1253   82.8011   14.9697 C.ar    1  UNL1        0.0001
     27 C          63.2848   82.3396   13.8163 C.ar    1  UNL1        0.0013
     28 C          62.7453   83.3374   12.8347 C.ar    1  UNL1        0.0187
@<TRIPOS>BOND
     1     7     8    2
     2     8     9   am
     3     9     1    1
     4     1     2   ar
     5     2     3   ar
     6     3     4   ar
     7     4    20    1
     8    20    21    2
     9    20    22    2
    10    20    23    1
    11    23    24   ar
    12    24    25   ar
    13    25    26   ar
    14    26    27   ar
    15    27    28   ar
    16     4     5   ar
    17     5     6   ar
    18    11     8    1
    19    11    12    1
    20    12    13    1
    21    13    14    1
    22    14    15   ar
    23    15    16   ar
    24    16    17   ar
    25    17    18   ar
    26    18    19   ar
    27     6     1   ar
    28    13    11    1
    29    19    14   ar
    30    28    23   ar
    31     9    10    1
@<TRIPOS>MOLECULE
*****
 28 31 0 0 0
SMALL
GASTEIGER

@<TRIPOS>ATOM
      1 C          59.6724   88.5744    7.6845 C.ar    1  UNL1        0.0504
      2 C          59.6775   87.1034    7.3915 C.ar    1  UNL1        0.0160
      3 C          60.4294   86.1631    8.2862 C.ar    1  UNL1        0.0200
      4 C          61.1763   86.6939    9.4738 C.ar    1  UNL1        0.1104
      5 C          61.1712   88.1650    9.7668 C.ar    1  UNL1        0.0200
      6 C          60.4193   89.1052    8.8721 C.ar    1  UNL1        0.0160
      7 O          61.1445   90.1868    5.6269 O.2     1  UNL1       -0.2748
      8 C          59.6565   90.3210    5.7610 C.2     1  UNL1        0.2260
      9 N          58.9205   89.5148    6.7898 N.am    1  UNL1       -0.2839
     10 H          57.9439   89.6028    6.8778 H       1  UNL1        0.1549
     11 C          58.9046   91.2613    4.8664 C.3     1  UNL1        0.0812
     12 C          57.6335   91.9685    4.4999 C.3     1  UNL1        0.0143
     13 C          58.8733   92.1829    3.6832 C.3     1  UNL1        0.0330
     14 C          59.5710   92.8387    2.5287 C.ar    1  UNL1       -0.0029
     15 C          61.0076   93.2510    2.6566 C.ar    1  UNL1       -0.0011
     16 C          61.7053   93.9068    1.5021 C.ar    1  UNL1        0.0204
     17 C          60.9665   94.1504    0.2195 C.ar    1  UNL1        0.0989
     18 N          59.5299   93.7381    0.0916 N.ar    1  UNL1       -0.2426
     19 C          58.8322   93.0823    1.2462 C.ar    1  UNL1        0.0946
     20 S          61.9282   85.7535   10.3685 S.O2    1  UNL1        0.0274
     21 O          62.7106   85.2570    9.1890 O.2     1  UNL1       -0.1642
     22 O          61.1458   86.2500   11.5480 O.2     1  UNL1       -0.1642
     23 C          62.6801   84.8132   11.2631 C.ar    1  UNL1        0.1103
     24 C          63.5119   83.7159   10.6681 C.ar    1  UNL1        0.0187
     25 C          64.2639   82.7755   11.5627 C.ar    1  UNL1        0.0013
     26 C          64.1840   82.9325   13.0523 C.ar    1  UNL1        0.0001
     27 C          63.3522   84.0297   13.6473 C.ar    1  UNL1        0.0013
     28 C          62.6002   84.9701   12.7527 C.ar    1  UNL1        0.0187
@<TRIPOS>BOND
     1     7     8    2
     2     8     9   am
     3     9     1    1
     4     1     2   ar
     5     2     3   ar
     6     3     4   ar
     7     4    20    1
     8    20    21    2
     9    20    22    2
    10    20    23    1
    11    23    24   ar
    12    24    25   ar
    13    25    26   ar
    14    26    27   ar
    15    27    28   ar
    16     4     5   ar
    17     5     6   ar
    18    11     8    1
    19    11    12    1
    20    12    13    1
    21    13    14    1
    22    14    15   ar
    23    15    16   ar
    24    16    17   ar
    25    17    18   ar
    26    18    19   ar
    27     6     1   ar
    28    13    11    1
    29    19    14   ar
    30    28    23   ar
    31     9    10    1
@<TRIPOS>MOLECULE
*****
 28 31 0 0 0
SMALL
GASTEIGER

@<TRIPOS>ATOM
      1 C          64.1128   89.2100   13.3919 C.ar    1  UNL1        0.0504
      2 C          63.3221   88.6234   12.2602 C.ar    1  UNL1        0.0160
      3 C          62.9754   87.1641   12.2647 C.ar    1  UNL1        0.0200
      4 C          63.4194   86.2913   13.4010 C.ar    1  UNL1        0.1104
      5 C          64.2101   86.8778   14.5327 C.ar    1  UNL1        0.0200
      6 C          64.5567   88.3372   14.5282 C.ar    1  UNL1        0.0160
      7 O          66.7587   90.1265   14.4684 O.2     1  UNL1       -0.2748
      8 C          65.7824   91.1276   13.9256 C.2     1  UNL1        0.2260
      9 N          64.4595   90.6694   13.3874 N.am    1  UNL1       -0.2839
     10 H          63.8187   91.3265   13.0311 H       1  UNL1        0.1549
     11 C          66.1292   92.5871   13.9211 C.3     1  UNL1        0.0812
     12 C          66.5150   93.8329   14.6621 C.3     1  UNL1        0.0143
     13 C          66.3438   93.8690   13.1724 C.3     1  UNL1        0.0330
     14 C          66.3689   94.6299   11.8800 C.ar    1  UNL1       -0.0029
     15 C          66.0271   96.0903   11.8627 C.ar    1  UNL1       -0.0011
     16 C          66.0521   96.8512   10.5703 C.ar    1  UNL1        0.0204
     17 C          66.4190   96.1517    9.2951 C.ar    1  UNL1        0.0989
     18 N          66.7609   94.6913    9.3123 N.ar    1  UNL1       -0.2426
     19 C          66.7358   93.9304   10.6048 C.ar    1  UNL1        0.0946
     20 S          63.0727   84.8319   13.4055 S.O2    1  UNL1        0.0274
     21 O          63.4444   84.7391   11.9553 O.2     1  UNL1       -0.1642
     22 O          62.7010   84.9246   14.8557 O.2     1  UNL1       -0.1642
     23 C          62.7260   83.3725   13.4100 C.ar    1  UNL1        0.1103
     24 C          63.1399   82.4998   12.2623 C.ar    1  UNL1        0.0187
     25 C          62.7932   81.0404   12.2668 C.ar    1  UNL1        0.0013
     26 C          62.0326   80.4537   13.4189 C.ar    1  UNL1        0.0001
     27 C          61.6188   81.3264   14.5665 C.ar    1  UNL1        0.0013
     28 C          61.9654   82.7858   14.5621 C.ar    1  UNL1        0.0187
@<TRIPOS>BOND
     1     7     8    2
     2     8     9   am
     3     9     1    1
     4     1     2   ar
     5     2     3   ar
     6     3     4   ar
     7     4    20    1
     8    20    21    2
     9    20    22    2
    10    20    23    1
    11    23    24   ar
    12    24    25   ar
    13    25    26   ar
    14    26    27   ar
    15    27    28   ar
    16     4     5   ar
    17     5     6   ar
    18    11     8    1
    19    11    12    1
    20    12    13    1
    21    13    14    1
    22    14    15   ar
    23    15    16   ar
    24    16    17   ar
    25    17    18   ar
    26    18    19   ar
    27     6     1   ar
    28    13    11    1
    29    19    14   ar
    30    28    23   ar
    31     9    10    1
@<TRIPOS>MOLECULE
*****
 28 31 0 0 0
SMALL
GASTEIGER

@<TRIPOS>ATOM
      1 C          64.0545   86.2093   14.2507 C.ar    1  UNL1        0.0504
      2 C          63.2183   86.1275   13.0081 C.ar    1  UNL1        0.0160
      3 C          62.9763   84.8000   12.3531 C.ar    1  UNL1        0.0200
      4 C          63.5705   83.5543   12.9406 C.ar    1  UNL1        0.1104
      5 C          64.4067   83.6361   14.1832 C.ar    1  UNL1        0.0200
      6 C          64.6487   84.9636   14.8383 C.ar    1  UNL1        0.0160
      7 O          63.5365   88.7464   12.7358 O.2     1  UNL1       -0.2748
      8 C          64.0375   88.8053   14.1484 C.2     1  UNL1        0.2260
      9 N          64.2965   87.5368   14.9059 N.am    1  UNL1       -0.2839
     10 H          64.6253   87.5756   15.8330 H       1  UNL1        0.1549
     11 C          64.2795   90.1329   14.8036 C.3     1  UNL1        0.0812
     12 C          63.7734   91.3027   15.5942 C.3     1  UNL1        0.0143
     13 C          65.2047   91.2623   15.1476 C.3     1  UNL1        0.0330
     14 C          66.5653   91.8909   15.0884 C.ar    1  UNL1       -0.0029
     15 C          67.0478   92.7433   16.2244 C.ar    1  UNL1       -0.0011
     16 C          68.4084   93.3720   16.1652 C.ar    1  UNL1        0.0204
     17 C          69.2866   93.1483   14.9698 C.ar    1  UNL1        0.0989
     18 N          68.8041   92.2959   13.8338 N.ar    1  UNL1       -0.2426
     19 C          67.4434   91.6672   13.8931 C.ar    1  UNL1        0.0946
     20 S          63.3285   82.2268   12.2854 S.O2    1  UNL1        0.0274
     21 O          64.4456   82.4986   11.3221 O.2     1  UNL1       -0.1642
     22 O          62.2114   81.9550   13.2488 O.2     1  UNL1       -0.1642
     23 C          63.0866   80.8993   11.6303 C.ar    1  UNL1        0.1103
     24 C          62.6786   79.7173   12.4588 C.ar    1  UNL1        0.0187
     25 C          62.4366   78.3898   11.8037 C.ar    1  UNL1        0.0013
     26 C          62.6026   78.2443   10.3200 C.ar    1  UNL1        0.0001
     27 C          63.0106   79.4263    9.4915 C.ar    1  UNL1        0.0013
     28 C          63.2526   80.7538   10.1466 C.ar    1  UNL1        0.0187
@<TRIPOS>BOND
     1     7     8    2
     2     8     9   am
     3     9     1    1
     4     1     2   ar
     5     2     3   ar
     6     3     4   ar
     7     4    20    1
     8    20    21    2
     9    20    22    2
    10    20    23    1
    11    23    24   ar
    12    24    25   ar
    13    25    26   ar
    14    26    27   ar
    15    27    28   ar
    16     4     5   ar
    17     5     6   ar
    18    11     8    1
    19    11    12    1
    20    12    13    1
    21    13    14    1
    22    14    15   ar
    23    15    16   ar
    24    16    17   ar
    25    17    18   ar
    26    18    19   ar
    27     6     1   ar
    28    13    11    1
    29    19    14   ar
    30    28    23   ar
    31     9    10    1
@<TRIPOS>MOLECULE
*****
 28 31 0 0 0
SMALL
GASTEIGER

@<TRIPOS>ATOM
      1 C          63.7889   89.2206   13.6127 C.ar    1  UNL1        0.0504
      2 C          64.8125   90.0302   14.3520 C.ar    1  UNL1        0.0160
      3 C          65.4260   91.2358   13.7038 C.ar    1  UNL1        0.0200
      4 C          65.0160   91.6317   12.3164 C.ar    1  UNL1        0.1104
      5 C          63.9924   90.8221   11.5770 C.ar    1  UNL1        0.0200
      6 C          63.3788   89.6165   12.2252 C.ar    1  UNL1        0.0160
      7 O          65.5192   86.9048   14.4149 O.2     1  UNL1       -0.2748
      8 C          64.0404   86.8571   14.6619 C.2     1  UNL1        0.2260
      9 N          63.1753   88.0150   14.2608 N.am    1  UNL1       -0.2839
     10 H          62.2047   87.9836   14.4229 H       1  UNL1        0.1549
     11 C          63.4268   85.6515   15.3100 C.3     1  UNL1        0.0812
     12 C          62.8244   84.9887   16.5132 C.3     1  UNL1        0.0143
     13 C          62.9665   84.2261   15.2294 C.3     1  UNL1        0.0330
     14 C          62.7829   82.9630   14.4417 C.ar    1  UNL1       -0.0029
     15 C          63.8929   82.4544   13.5703 C.ar    1  UNL1       -0.0011
     16 C          63.7092   81.1912   12.7826 C.ar    1  UNL1        0.0204
     17 C          62.4155   80.4365   12.8661 C.ar    1  UNL1        0.0989
     18 N          61.3055   80.9451   13.7375 N.ar    1  UNL1       -0.2426
     19 C          61.4892   82.2084   14.5253 C.ar    1  UNL1        0.0946
     20 S          65.6296   92.8373   11.6682 S.O2    1  UNL1        0.0274
     21 O          65.9056   93.4240   13.0208 O.2     1  UNL1       -0.1642
     22 O          65.3536   92.2507   10.3156 O.2     1  UNL1       -0.1642
     23 C          66.2431   94.0429   11.0201 C.ar    1  UNL1        0.1103
     24 C          66.1707   95.3783   11.6997 C.ar    1  UNL1        0.0187
     25 C          66.7843   96.5839   11.0516 C.ar    1  UNL1        0.0013
     26 C          67.4703   96.4542    9.7240 C.ar    1  UNL1        0.0001
     27 C          67.5428   95.1190    9.0445 C.ar    1  UNL1        0.0013
     28 C          66.9292   93.9133    9.6925 C.ar    1  UNL1        0.0187
@<TRIPOS>BOND
     1     7     8    2
     2     8     9   am
     3     9     1    1
     4     1     2   ar
     5     2     3   ar
     6     3     4   ar
     7     4    20    1
     8    20    21    2
     9    20    22    2
    10    20    23    1
    11    23    24   ar
    12    24    25   ar
    13    25    26   ar
    14    26    27   ar
    15    27    28   ar
    16     4     5   ar
    17     5     6   ar
    18    11     8    1
    19    11    12    1
    20    12    13    1
    21    13    14    1
    22    14    15   ar
    23    15    16   ar
    24    16    17   ar
    25    17    18   ar
    26    18    19   ar
    27     6     1   ar
    28    13    11    1
    29    19    14   ar
    30    28    23   ar
    31     9    10    1
@<TRIPOS>MOLECULE
*****
 28 31 0 0 0
SMALL
GASTEIGER

@<TRIPOS>ATOM
      1 C          60.3655   93.0113    1.8668 C.ar    1  UNL1        0.0504
      2 C          60.7861   92.2524    0.6432 C.ar    1  UNL1        0.0160
      3 C          61.7003   92.8925   -0.3589 C.ar    1  UNL1        0.0200
      4 C          62.1941   94.2915   -0.1375 C.ar    1  UNL1        0.1104
      5 C          61.7736   95.0504    1.0861 C.ar    1  UNL1        0.0200
      6 C          60.8593   94.4103    2.0882 C.ar    1  UNL1        0.0160
      7 O          61.5092   91.6059    4.2578 O.2     1  UNL1       -0.2748
      8 C          60.0231   91.6685    4.0644 C.2     1  UNL1        0.2260
      9 N          59.4512   92.3712    2.8690 N.am    1  UNL1       -0.2839
     10 H          58.4758   92.4123    2.7421 H       1  UNL1        0.1549
     11 C          59.1087   91.0284    5.0667 C.3     1  UNL1        0.0812
     12 C          57.7358   90.8482    5.6433 C.3     1  UNL1        0.0143
     13 C          58.8980   90.1001    6.2259 C.3     1  UNL1        0.0330
     14 C          59.4474   89.1321    7.2314 C.ar    1  UNL1       -0.0029
     15 C          59.2311   87.6589    7.0504 C.ar    1  UNL1       -0.0011
     16 C          59.7805   86.6910    8.0560 C.ar    1  UNL1        0.0204
     17 C          60.5463   87.1963    9.2427 C.ar    1  UNL1        0.0989
     18 N          60.7627   88.6695    9.4238 N.ar    1  UNL1       -0.2426
     19 C          60.2132   89.6375    8.4181 C.ar    1  UNL1        0.0946
     20 S          63.1084   94.9316   -1.1397 S.O2    1  UNL1        0.0274
     21 O          63.9852   95.4227   -0.0261 O.2     1  UNL1       -0.1642
     22 O          62.2317   94.4405   -2.2533 O.2     1  UNL1       -0.1642
     23 C          64.0227   95.5717   -2.1418 C.ar    1  UNL1        0.1103
     24 C          65.3010   96.2127   -1.6888 C.ar    1  UNL1        0.0187
     25 C          66.2153   96.8528   -2.6909 C.ar    1  UNL1        0.0013
     26 C          65.8514   96.8519   -4.1461 C.ar    1  UNL1        0.0001
     27 C          64.5733   96.2109   -4.5992 C.ar    1  UNL1        0.0013
     28 C          63.6589   95.5708   -3.5970 C.ar    1  UNL1        0.0187
@<TRIPOS>BOND
     1     7     8    2
     2     8     9   am
     3     9     1    1
     4     1     2   ar
     5     2     3   ar
     6     3     4   ar
     7     4    20    1
     8    20    21    2
     9    20    22    2
    10    20    23    1
    11    23    24   ar
    12    24    25   ar
    13    25    26   ar
    14    26    27   ar
    15    27    28   ar
    16     4     5   ar
    17     5     6   ar
    18    11     8    1
    19    11    12    1
    20    12    13    1
    21    13    14    1
    22    14    15   ar
    23    15    16   ar
    24    16    17   ar
    25    17    18   ar
    26    18    19   ar
    27     6     1   ar
    28    13    11    1
    29    19    14   ar
    30    28    23   ar
    31     9    10    1
@<TRIPOS>MOLECULE
*****
 28 31 0 0 0
SMALL
GASTEIGER

@<TRIPOS>ATOM
      1 C          60.9361   91.5391    4.2375 C.ar    1  UNL1        0.0504
      2 C          59.7524   92.3890    3.8818 C.ar    1  UNL1        0.0160
      3 C          59.8017   93.2751    2.6725 C.ar    1  UNL1        0.0200
      4 C          61.0346   93.3113    1.8189 C.ar    1  UNL1        0.1104
      5 C          62.2183   92.4614    2.1746 C.ar    1  UNL1        0.0200
      6 C          62.1690   91.5753    3.3839 C.ar    1  UNL1        0.0160
      7 O          58.3041   90.4868    5.2200 O.2     1  UNL1       -0.2748
      8 C          59.5710   90.1269    5.9381 C.2     1  UNL1        0.2260
      9 N          60.8869   90.6530    5.4469 N.am    1  UNL1       -0.2839
     10 H          61.7184   90.4168    5.9182 H       1  UNL1        0.1549
     11 C          59.5218   89.2407    7.1474 C.3     1  UNL1        0.0812
     12 C          59.0176   88.0057    7.8332 C.3     1  UNL1        0.0143
     13 C          59.9408   88.9410    8.5562 C.3     1  UNL1        0.0330
     14 C          60.7158   89.3080    9.7869 C.ar    1  UNL1       -0.0029
     15 C          62.0397   90.0017    9.6605 C.ar    1  UNL1       -0.0011
     16 C          62.8147   90.3687   10.8912 C.ar    1  UNL1        0.0204
     17 C          62.2657   90.0420   12.2484 C.ar    1  UNL1        0.0989
     18 N          60.9418   89.3484   12.3748 N.ar    1  UNL1       -0.2426
     19 C          60.1668   88.9814   11.1440 C.ar    1  UNL1        0.0946
     20 S          61.0838   94.1974    0.6096 S.O2    1  UNL1        0.0274
     21 O          59.6202   94.4878    0.7629 O.2     1  UNL1       -0.1642
     22 O          62.5474   93.9070    0.4563 O.2     1  UNL1       -0.1642
     23 C          61.1329   95.0835   -0.5997 C.ar    1  UNL1        0.1103
     24 C          59.8635   95.6377   -1.1755 C.ar    1  UNL1        0.0187
     25 C          59.9126   96.5238   -2.3847 C.ar    1  UNL1        0.0013
     26 C          61.2311   96.8557   -3.0183 C.ar    1  UNL1        0.0001
     27 C          62.5005   96.3015   -2.4426 C.ar    1  UNL1        0.0013
     28 C          62.4514   95.4154   -1.2332 C.ar    1  UNL1        0.0187
@<TRIPOS>BOND
     1     7     8    2
     2     8     9   am
     3     9     1    1
     4     1     2   ar
     5     2     3   ar
     6     3     4   ar
     7     4    20    1
     8    20    21    2
     9    20    22    2
    10    20    23    1
    11    23    24   ar
    12    24    25   ar
    13    25    26   ar
    14    26    27   ar
    15    27    28   ar
    16     4     5   ar
    17     5     6   ar
    18    11     8    1
    19    11    12    1
    20    12    13    1
    21    13    14    1
    22    14    15   ar
    23    15    16   ar
    24    16    17   ar
    25    17    18   ar
    26    18    19   ar
    27     6     1   ar
    28    13    11    1
    29    19    14   ar
    30    28    23   ar
    31     9    10    1
@<TRIPOS>MOLECULE
*****
 28 31 0 0 0
SMALL
GASTEIGER

@<TRIPOS>ATOM
      1 C          44.7369   74.7326   17.6862 C.ar    1  UNL1        0.0504
      2 C          45.1571   74.9642   16.2650 C.ar    1  UNL1        0.0160
      3 C          45.2138   73.8148   15.3029 C.ar    1  UNL1        0.0200
      4 C          44.8503   72.4338   15.7620 C.ar    1  UNL1        0.1104
      5 C          44.4301   72.2022   17.1831 C.ar    1  UNL1        0.0200
      6 C          44.3735   73.3516   18.1452 C.ar    1  UNL1        0.0160
      7 O          46.6887   74.8834   19.9595 O.2     1  UNL1       -0.2748
      8 C          45.6561   75.9574   19.7850 C.2     1  UNL1        0.2260
      9 N          44.6802   75.8819   18.6484 N.am    1  UNL1       -0.2839
     10 H          44.0025   76.5868   18.5339 H       1  UNL1        0.1549
     11 C          45.5994   77.1067   20.7472 C.3     1  UNL1        0.0812
     12 C          45.6592   77.6289   22.1521 C.3     1  UNL1        0.0143
     13 C          45.4415   78.5753   21.0089 C.3     1  UNL1        0.0330
     14 C          45.2246   79.9695   20.4999 C.ar    1  UNL1       -0.0029
     15 C          43.8533   80.5762   20.5358 C.ar    1  UNL1       -0.0011
     16 C          43.6365   81.9704   20.0268 C.ar    1  UNL1        0.0204
     17 C          44.7910   82.7580   19.4819 C.ar    1  UNL1        0.0989
     18 N          46.1624   82.1513   19.4460 N.ar    1  UNL1       -0.2426
     19 C          46.3792   80.7570   19.9551 C.ar    1  UNL1        0.0946
     20 S          44.9070   71.2845   14.7997 S.O2    1  UNL1        0.0274
     21 O          46.1218   70.7557   15.5030 O.2     1  UNL1       -0.1642
     22 O          43.6921   71.8132   14.0965 O.2     1  UNL1       -0.1642
     23 C          44.9637   70.1351   13.8376 C.ar    1  UNL1        0.1103
     24 C          46.1250   69.1862   13.8704 C.ar    1  UNL1        0.0187
     25 C          46.1817   68.0368   12.9082 C.ar    1  UNL1        0.0013
     26 C          45.0772   67.8364   11.9133 C.ar    1  UNL1        0.0001
     27 C          43.9160   68.7852   11.8805 C.ar    1  UNL1        0.0013
     28 C          43.8592   69.9347   12.8427 C.ar    1  UNL1        0.0187
@<TRIPOS>BOND
     1     7     8    2
     2     8     9   am
     3     9     1    1
     4     1     2   ar
     5     2     3   ar
     6     3     4   ar
     7     4    20    1
     8    20    21    2
     9    20    22    2
    10    20    23    1
    11    23    24   ar
    12    24    25   ar
    13    25    26   ar
    14    26    27   ar
    15    27    28   ar
    16     4     5   ar
    17     5     6   ar
    18    11     8    1
    19    11    12    1
    20    12    13    1
    21    13    14    1
    22    14    15   ar
    23    15    16   ar
    24    16    17   ar
    25    17    18   ar
    26    18    19   ar
    27     6     1   ar
    28    13    11    1
    29    19    14   ar
    30    28    23   ar
    31     9    10    1
