@<TRIPOS>MOLECULE
*****
 36 39 0 0 0
SMALL
GASTEIGER

@<TRIPOS>ATOM
      1 C          62.7201   89.5406   11.8049 C.ar    1  UNL1        0.1284
      2 N          62.3403   90.4659   10.6871 N.ar    1  UNL1       -0.0768
      3 O          61.9942   89.6299    9.4907 O.2     1  UNL1       -0.3571
      4 C          62.1601   88.1879    9.8691 C.ar    1  UNL1        0.1640
      5 C          62.6088   88.1327   11.2993 C.ar    1  UNL1        0.0883
      6 BR         62.8957   86.8881   12.0859 Br      1  UNL1       -0.0444
      7 C          61.9197   87.0083    8.9743 C.3     1  UNL1        0.1048
      8 C          63.0740   86.1678    8.5150 C.3     1  UNL1        0.0790
      9 N          62.8335   84.9881    7.6202 N.3     1  UNL1       -0.2969
     10 C          61.4387   84.6491    7.1847 C.3     1  UNL1        0.0714
     11 C          60.2844   85.4896    7.6441 C.3     1  UNL1        0.0487
     12 C          60.5249   86.6692    8.5389 C.3     1  UNL1        0.1164
     13 O          59.0338   86.7496    8.3971 O.3     1  UNL1       -0.3822
     14 H          63.1968   84.1695    8.1082 H       1  UNL1        0.1233
     15 H          58.7238   86.0279    7.8279 H       1  UNL1        0.2107
     16 C          60.2475   87.8768    9.3845 C.ar    1  UNL1        0.0046
     17 C          60.2751   89.2449    8.7702 C.ar    1  UNL1        0.0004
     18 C          59.9977   90.4524    9.6159 C.ar    1  UNL1        0.0317
     19 C          59.6929   90.2917   11.0758 C.ar    1  UNL1        0.1674
     20 F          59.4155   91.4992   11.9213 F       1  UNL1       -0.2018
     21 C          59.6653   88.9235   11.6900 C.ar    1  UNL1        0.1671
     22 F          59.3604   88.7628   13.1498 F       1  UNL1       -0.2018
     23 C          59.9426   87.7161   10.8444 C.ar    1  UNL1        0.0299
     24 C          64.2186   90.9749   13.3693 C.ar    1  UNL1       -0.0189
     25 C          64.6364   91.3853   14.7502 C.ar    1  UNL1       -0.0042
     26 C          63.9735   90.7717   15.9478 C.ar    1  UNL1       -0.0003
     27 C          62.8928   89.7478   15.7644 C.ar    1  UNL1        0.0000
     28 C          62.4751   89.3374   14.3835 C.ar    1  UNL1        0.0013
     29 C          63.1379   89.9510   13.1859 C.ar    1  UNL1        0.0175
     30 C          64.8815   91.5885   12.1717 C.3     1  UNL1        0.0476
     31 C          65.9984   92.5728   12.3549 C.3     1  UNL1        0.0941
     32 C          66.1929   96.3068   11.0247 C.3     1  UNL1        0.0946
     33 C          66.4575   94.8372   11.1666 C.2     1  UNL1        0.2230
     34 O          67.4458   94.1623   10.2623 O.2     1  UNL1       -0.2751
     35 N          65.7338   94.0424   12.2130 N.am    1  UNL1       -0.3040
     36 H          65.0852   94.4854   12.8065 H       1  UNL1        0.1494
@<TRIPOS>BOND
     1    32    33    1
     2    33    34    2
     3    33    35   am
     4    35    31    1
     5    31    30    1
     6    30    24    1
     7    24    25   ar
     8    25    26   ar
     9    26    27   ar
    10    27    28   ar
    11    28    29   ar
    12    29     1    1
    13     1     2   ar
    14     2     3   ar
    15     3     4   ar
    16     7     4    1
    17     7     8    1
    18     8     9    1
    19     9    10    1
    20    10    11    1
    21    11    12    1
    22    12    13    1
    23    12    16    1
    24    16    17   ar
    25    17    18   ar
    26    18    19   ar
    27    19    20    1
    28    19    21   ar
    29    21    22    1
    30    21    23   ar
    31     4     5   ar
    32     5     6    1
    33    29    24   ar
    34     5     1   ar
    35    12     7    1
    36    23    16   ar
    37    35    36    1
    38     9    14    1
    39    13    15    1
@<TRIPOS>MOLECULE
*****
 36 39 0 0 0
SMALL
GASTEIGER

@<TRIPOS>ATOM
      1 C          64.0541   86.2887   13.5467 C.ar    1  UNL1        0.1284
      2 N          65.2257   85.6227   14.2052 N.ar    1  UNL1       -0.0768
      3 O          65.1649   84.1579   13.8877 O.2     1  UNL1       -0.3571
      4 C          63.9556   83.9187   13.0330 C.ar    1  UNL1        0.1640
      5 C          63.2692   85.2356   12.8222 C.ar    1  UNL1        0.0883
      6 BR         62.0175   85.4601   12.0266 Br      1  UNL1       -0.0444
      7 C          63.5110   82.5950   12.4852 C.3     1  UNL1        0.1048
      8 C          63.7473   82.2632   11.0415 C.3     1  UNL1        0.0790
      9 N          63.3027   80.9396   10.4937 N.3     1  UNL1       -0.2969
     10 C          62.6217   79.9477   11.3895 C.3     1  UNL1        0.0714
     11 C          62.3854   80.2794   12.8332 C.3     1  UNL1        0.0487
     12 C          62.8300   81.6031   13.3810 C.3     1  UNL1        0.1164
     13 O          62.2313   80.9980   14.6160 O.3     1  UNL1       -0.3822
     14 H          64.1345   80.4796   10.1237 H       1  UNL1        0.1233
     15 H          61.8914   80.1131   14.4103 H       1  UNL1        0.2107
     16 C          63.0668   82.7167   14.3577 C.ar    1  UNL1        0.0046
     17 C          64.4203   82.8943   14.9790 C.ar    1  UNL1        0.0004
     18 C          64.6571   84.0079   15.9557 C.ar    1  UNL1        0.0317
     19 C          63.5401   84.9439   16.3111 C.ar    1  UNL1        0.1674
     20 F          63.7768   86.0574   17.2877 F       1  UNL1       -0.2018
     21 C          62.1864   84.7663   15.6897 C.ar    1  UNL1        0.1671
     22 F          61.0694   85.7022   16.0451 F       1  UNL1       -0.2018
     23 C          61.9497   83.6527   14.7131 C.ar    1  UNL1        0.0299
     24 C          63.0953   88.4242   12.4195 C.ar    1  UNL1       -0.0189
     25 C          62.7664   89.8866   12.4757 C.ar    1  UNL1       -0.0042
     26 C          63.0673   90.6760   13.7151 C.ar    1  UNL1       -0.0003
     27 C          63.6971   90.0030   14.8985 C.ar    1  UNL1        0.0000
     28 C          64.0261   88.5406   14.8423 C.ar    1  UNL1        0.0013
     29 C          63.7251   87.7512   13.6028 C.ar    1  UNL1        0.0175
     30 C          62.7944   87.6348   11.1800 C.3     1  UNL1        0.0476
     31 C          62.3287   88.3363    9.9387 C.3     1  UNL1        0.0941
     32 C          59.1658   86.7704    8.1236 C.3     1  UNL1        0.0946
     33 C          60.5727   86.9588    8.6086 C.2     1  UNL1        0.2230
     34 O          61.6305   85.9581    8.2485 O.2     1  UNL1       -0.2751
     35 N          60.9218   88.1479    9.4537 N.am    1  UNL1       -0.3040
     36 H          60.2276   88.8047    9.6900 H       1  UNL1        0.1494
@<TRIPOS>BOND
     1    32    33    1
     2    33    34    2
     3    33    35   am
     4    35    31    1
     5    31    30    1
     6    30    24    1
     7    24    25   ar
     8    25    26   ar
     9    26    27   ar
    10    27    28   ar
    11    28    29   ar
    12    29     1    1
    13     1     2   ar
    14     2     3   ar
    15     3     4   ar
    16     7     4    1
    17     7     8    1
    18     8     9    1
    19     9    10    1
    20    10    11    1
    21    11    12    1
    22    12    13    1
    23    12    16    1
    24    16    17   ar
    25    17    18   ar
    26    18    19   ar
    27    19    20    1
    28    19    21   ar
    29    21    22    1
    30    21    23   ar
    31     4     5   ar
    32     5     6    1
    33    29    24   ar
    34     5     1   ar
    35    12     7    1
    36    23    16   ar
    37    35    36    1
    38     9    14    1
    39    13    15    1
@<TRIPOS>MOLECULE
*****
 36 39 0 0 0
SMALL
GASTEIGER

@<TRIPOS>ATOM
      1 C          62.9876   87.9057   11.8056 C.ar    1  UNL1        0.1284
      2 N          62.8762   89.0904   10.8923 N.ar    1  UNL1       -0.0768
      3 O          62.4870   88.5922    9.5321 O.2     1  UNL1       -0.3571
      4 C          62.3579   87.0995    9.6046 C.ar    1  UNL1        0.1640
      5 C          62.6672   86.6752   11.0097 C.ar    1  UNL1        0.0883
      6 BR         62.6579   85.2677   11.5280 Br      1  UNL1       -0.0444
      7 C          61.9849   86.1906    8.4711 C.3     1  UNL1        0.1048
      8 C          63.0378   85.3627    7.7960 C.3     1  UNL1        0.0790
      9 N          62.6648   84.4539    6.6625 N.3     1  UNL1       -0.2969
     10 C          61.2388   84.3729    6.2041 C.3     1  UNL1        0.0714
     11 C          60.1859   85.2008    6.8793 C.3     1  UNL1        0.0487
     12 C          60.5589   86.1096    8.0128 C.3     1  UNL1        0.1164
     13 O          59.0847   86.3765    7.9393 O.3     1  UNL1       -0.3822
     14 H          62.9394   83.5111    6.9384 H       1  UNL1        0.1233
     15 H          58.6944   85.8427    7.2296 H       1  UNL1        0.2107
     16 C          60.4199   87.1112    9.1208 C.ar    1  UNL1        0.0046
     17 C          60.2310   86.6450   10.5339 C.ar    1  UNL1        0.0004
     18 C          60.0921   87.6466   11.6419 C.ar    1  UNL1        0.0317
     19 C          60.1421   89.1144   11.3367 C.ar    1  UNL1        0.1674
     20 F          60.0032   90.1159   12.4446 F       1  UNL1       -0.2018
     21 C          60.3311   89.5806    9.9235 C.ar    1  UNL1        0.1671
     22 F          60.3811   91.0483    9.6183 F       1  UNL1       -0.2018
     23 C          60.4700   88.5790    8.8156 C.ar    1  UNL1        0.0299
     24 C          63.4466   89.2598   13.9749 C.ar    1  UNL1       -0.0189
     25 C          63.8139   89.2986   15.4287 C.ar    1  UNL1       -0.0042
     26 C          64.0893   88.0223   16.1670 C.ar    1  UNL1       -0.0003
     27 C          63.9975   86.7072   15.4516 C.ar    1  UNL1        0.0000
     28 C          63.6303   86.6683   13.9978 C.ar    1  UNL1        0.0013
     29 C          63.3548   87.9446   13.2594 C.ar    1  UNL1        0.0175
     30 C          63.1712   90.5361   13.2365 C.3     1  UNL1        0.0476
     31 C          64.2556   91.5603   13.0787 C.3     1  UNL1        0.0941
     32 C          66.3083   93.3198   10.1734 C.3     1  UNL1        0.0946
     33 C          65.7646   93.0070   11.5359 C.2     1  UNL1        0.2230
     34 O          66.1863   93.8280   12.7183 O.2     1  UNL1       -0.2751
     35 N          64.7993   91.8731   11.7161 N.am    1  UNL1       -0.3040
     36 H          64.5225   91.3342   10.9401 H       1  UNL1        0.1494
@<TRIPOS>BOND
     1    32    33    1
     2    33    34    2
     3    33    35   am
     4    35    31    1
     5    31    30    1
     6    30    24    1
     7    24    25   ar
     8    25    26   ar
     9    26    27   ar
    10    27    28   ar
    11    28    29   ar
    12    29     1    1
    13     1     2   ar
    14     2     3   ar
    15     3     4   ar
    16     7     4    1
    17     7     8    1
    18     8     9    1
    19     9    10    1
    20    10    11    1
    21    11    12    1
    22    12    13    1
    23    12    16    1
    24    16    17   ar
    25    17    18   ar
    26    18    19   ar
    27    19    20    1
    28    19    21   ar
    29    21    22    1
    30    21    23   ar
    31     4     5   ar
    32     5     6    1
    33    29    24   ar
    34     5     1   ar
    35    12     7    1
    36    23    16   ar
    37    35    36    1
    38     9    14    1
    39    13    15    1
@<TRIPOS>MOLECULE
*****
 36 39 0 0 0
SMALL
GASTEIGER

@<TRIPOS>ATOM
      1 C          62.8524   88.4659   11.9660 C.ar    1  UNL1        0.1284
      2 N          63.0018   89.5406   10.9303 N.ar    1  UNL1       -0.0768
      3 O          62.6730   88.9449    9.5935 O.2     1  UNL1       -0.3571
      4 C          62.3205   87.5020    9.8030 C.ar    1  UNL1        0.1640
      5 C          62.4314   87.2060   11.2693 C.ar    1  UNL1        0.0883
      6 BR         62.1676   85.8825   11.9240 Br      1  UNL1       -0.0444
      7 C          61.9263   86.5264    8.7339 C.3     1  UNL1        0.1048
      8 C          62.9108   85.5016    8.2539 C.3     1  UNL1        0.0790
      9 N          62.5166   84.5261    7.1848 N.3     1  UNL1       -0.2969
     10 C          61.1380   84.5753    6.5958 C.3     1  UNL1        0.0714
     11 C          60.1535   85.6002    7.0759 C.3     1  UNL1        0.0487
     12 C          60.5476   86.5757    8.1450 C.3     1  UNL1        0.1164
     13 O          59.1356   87.0171    7.8975 O.3     1  UNL1       -0.3822
     14 H          62.6350   83.5930    7.5795 H       1  UNL1        0.1233
     15 H          58.7390   86.4608    7.2089 H       1  UNL1        0.2107
     16 C          60.4515   87.7046    9.1281 C.ar    1  UNL1        0.0046
     17 C          60.8764   89.0862    8.7277 C.ar    1  UNL1        0.0004
     18 C          60.7802   90.2150    9.7108 C.ar    1  UNL1        0.0317
     19 C          60.2591   89.9621   11.0945 C.ar    1  UNL1        0.1674
     20 F          60.1629   91.0909   12.0776 F       1  UNL1       -0.2018
     21 C          59.8341   88.5804   11.4949 C.ar    1  UNL1        0.1671
     22 F          59.3130   88.3276   12.8786 F       1  UNL1       -0.2018
     23 C          59.9303   87.4517   10.5118 C.ar    1  UNL1        0.0299
     24 C          63.7822   87.5419   14.2092 C.ar    1  UNL1       -0.0189
     25 C          64.0133   87.6994   15.6828 C.ar    1  UNL1       -0.0042
     26 C          63.5458   88.9386   16.3871 C.ar    1  UNL1       -0.0003
     27 C          62.8472   90.0202   15.6176 C.ar    1  UNL1        0.0000
     28 C          62.6161   89.8626   14.1440 C.ar    1  UNL1        0.0013
     29 C          63.0836   88.6235   13.4397 C.ar    1  UNL1        0.0175
     30 C          64.2496   86.3027   13.5050 C.3     1  UNL1        0.0476
     31 C          64.6239   85.0855   14.2977 C.3     1  UNL1        0.0941
     32 C          63.8103   81.2896   13.4736 C.3     1  UNL1        0.0946
     33 C          63.7762   82.6349   14.1362 C.2     1  UNL1        0.2230
     34 O          62.8606   82.8750   15.2997 O.2     1  UNL1       -0.2751
     35 N          64.6579   83.7402   13.6351 N.am    1  UNL1       -0.3040
     36 H          65.2589   83.5827   12.8714 H       1  UNL1        0.1494
@<TRIPOS>BOND
     1    32    33    1
     2    33    34    2
     3    33    35   am
     4    35    31    1
     5    31    30    1
     6    30    24    1
     7    24    25   ar
     8    25    26   ar
     9    26    27   ar
    10    27    28   ar
    11    28    29   ar
    12    29     1    1
    13     1     2   ar
    14     2     3   ar
    15     3     4   ar
    16     7     4    1
    17     7     8    1
    18     8     9    1
    19     9    10    1
    20    10    11    1
    21    11    12    1
    22    12    13    1
    23    12    16    1
    24    16    17   ar
    25    17    18   ar
    26    18    19   ar
    27    19    20    1
    28    19    21   ar
    29    21    22    1
    30    21    23   ar
    31     4     5   ar
    32     5     6    1
    33    29    24   ar
    34     5     1   ar
    35    12     7    1
    36    23    16   ar
    37    35    36    1
    38     9    14    1
    39    13    15    1
@<TRIPOS>MOLECULE
*****
 36 39 0 0 0
SMALL
GASTEIGER

@<TRIPOS>ATOM
      1 C          63.3889   86.5950   12.6187 C.ar    1  UNL1        0.1284
      2 N          64.4118   86.2439   13.6581 N.ar    1  UNL1       -0.0768
      3 O          64.4733   84.7487   13.7614 O.2     1  UNL1       -0.3571
      4 C          63.4883   84.1757   12.7858 C.ar    1  UNL1        0.1640
      5 C          62.8181   85.3169   12.0797 C.ar    1  UNL1        0.0883
      6 BR         61.7625   85.2003   11.0204 Br      1  UNL1       -0.0444
      7 C          63.2205   82.7177   12.5568 C.3     1  UNL1        0.1048
      8 C          63.4541   82.1160   11.2028 C.3     1  UNL1        0.0790
      9 N          63.1864   80.6580   10.9737 N.3     1  UNL1       -0.2969
     10 C          62.6850   79.8017   12.0986 C.3     1  UNL1        0.0714
     11 C          62.4513   80.4035   13.4526 C.3     1  UNL1        0.0487
     12 C          62.7191   81.8615   13.6817 C.3     1  UNL1        0.1164
     13 O          62.2547   81.4636   15.0513 O.3     1  UNL1       -0.3822
     14 H          64.0630   80.2439   10.6566 H       1  UNL1        0.1233
     15 H          62.0388   80.5180   15.0575 H       1  UNL1        0.2107
     16 C          62.8256   83.1814   14.3864 C.ar    1  UNL1        0.0046
     17 C          61.6383   84.0957   14.4497 C.ar    1  UNL1        0.0004
     18 C          61.7448   85.4157   15.1544 C.ar    1  UNL1        0.0317
     19 C          63.0388   85.8211   15.7959 C.ar    1  UNL1        0.1674
     20 F          63.1452   87.1409   16.5006 F       1  UNL1       -0.2018
     21 C          64.2261   84.9066   15.7326 C.ar    1  UNL1        0.1671
     22 F          65.5200   85.3120   16.3740 F       1  UNL1       -0.2018
     23 C          64.1195   83.5868   15.0279 C.ar    1  UNL1        0.0299
     24 C          63.4605   89.1650   12.9930 C.ar    1  UNL1       -0.0189
     25 C          63.0758   90.5509   12.5673 C.ar    1  UNL1       -0.0042
     26 C          62.2348   90.7529   11.3418 C.ar    1  UNL1       -0.0003
     27 C          61.7785   89.5689   10.5419 C.ar    1  UNL1        0.0000
     28 C          62.1632   88.1829   10.9676 C.ar    1  UNL1        0.0013
     29 C          63.0042   87.9810   12.1931 C.ar    1  UNL1        0.0175
     30 C          64.3015   88.9631   14.2185 C.3     1  UNL1        0.0476
     31 C          64.6227   90.1275   15.1079 C.3     1  UNL1        0.0941
     32 C          67.0814   93.2417   15.1864 C.3     1  UNL1        0.0946
     33 C          65.9596   92.3122   15.5435 C.2     1  UNL1        0.2230
     34 O          65.0529   92.6378   16.6932 O.2     1  UNL1       -0.2751
     35 N          65.7445   91.0570   14.7508 N.am    1  UNL1       -0.3040
     36 H          66.3396   90.8433   13.9962 H       1  UNL1        0.1494
@<TRIPOS>BOND
     1    32    33    1
     2    33    34    2
     3    33    35   am
     4    35    31    1
     5    31    30    1
     6    30    24    1
     7    24    25   ar
     8    25    26   ar
     9    26    27   ar
    10    27    28   ar
    11    28    29   ar
    12    29     1    1
    13     1     2   ar
    14     2     3   ar
    15     3     4   ar
    16     7     4    1
    17     7     8    1
    18     8     9    1
    19     9    10    1
    20    10    11    1
    21    11    12    1
    22    12    13    1
    23    12    16    1
    24    16    17   ar
    25    17    18   ar
    26    18    19   ar
    27    19    20    1
    28    19    21   ar
    29    21    22    1
    30    21    23   ar
    31     4     5   ar
    32     5     6    1
    33    29    24   ar
    34     5     1   ar
    35    12     7    1
    36    23    16   ar
    37    35    36    1
    38     9    14    1
    39    13    15    1
@<TRIPOS>MOLECULE
*****
 36 39 0 0 0
SMALL
GASTEIGER

@<TRIPOS>ATOM
      1 C          61.9886   85.4488   11.2578 C.ar    1  UNL1        0.1284
      2 N          61.2632   86.3080   12.2505 N.ar    1  UNL1       -0.0768
      3 O          60.4145   87.2818   11.4880 O.2     1  UNL1       -0.3571
      4 C          60.6154   87.0244   10.0239 C.ar    1  UNL1        0.1640
      5 C          61.5882   85.8915    9.8817 C.ar    1  UNL1        0.0883
      6 BR         62.0752   85.3045    8.5901 Br      1  UNL1       -0.0444
      7 C          59.9588   87.7691    8.8995 C.3     1  UNL1        0.1048
      8 C          58.9439   87.0807    8.0357 C.3     1  UNL1        0.0790
      9 N          58.2873   87.8253    6.9113 N.3     1  UNL1       -0.2969
     10 C          58.6455   89.2585    6.6508 C.3     1  UNL1        0.0714
     11 C          59.6603   89.9469    7.5146 C.3     1  UNL1        0.0487
     12 C          60.3170   89.2022    8.6389 C.3     1  UNL1        0.1164
     13 O          60.9836   90.5377    8.7867 O.3     1  UNL1       -0.3822
     14 H          57.2831   87.8003    7.0884 H       1  UNL1        0.1233
     15 H          60.6491   91.1431    8.1066 H       1  UNL1        0.2107
     16 C          61.2051   88.9213    9.8147 C.ar    1  UNL1        0.0046
     17 C          62.4840   88.1611    9.6239 C.ar    1  UNL1        0.0004
     18 C          63.3721   87.8802   10.7996 C.ar    1  UNL1        0.0317
     19 C          62.9813   88.3595   12.1662 C.ar    1  UNL1        0.1674
     20 F          63.8694   88.0786   13.3419 F       1  UNL1       -0.2018
     21 C          61.7024   89.1198   12.3570 C.ar    1  UNL1        0.1671
     22 F          61.3116   89.5991   13.7235 F       1  UNL1       -0.2018
     23 C          60.8143   89.4007   11.1813 C.ar    1  UNL1        0.0299
     24 C          63.1804   83.9486   13.0125 C.ar    1  UNL1       -0.0189
     25 C          64.1380   82.8411   13.3386 C.ar    1  UNL1       -0.0042
     26 C          64.8614   82.1262   12.2361 C.ar    1  UNL1       -0.0003
     27 C          64.6272   82.5188   10.8074 C.ar    1  UNL1        0.0000
     28 C          63.6696   83.6263   10.4814 C.ar    1  UNL1        0.0013
     29 C          62.9462   84.3412   11.5839 C.ar    1  UNL1        0.0175
     30 C          62.4570   84.6635   14.1151 C.3     1  UNL1        0.0476
     31 C          63.1234   84.8617   15.4442 C.3     1  UNL1        0.0941
     32 C          63.0934   88.3878   17.2651 C.3     1  UNL1        0.0946
     33 C          62.6789   87.0130   16.8315 C.2     1  UNL1        0.2230
     34 O          61.4055   86.4146   17.3514 O.2     1  UNL1       -0.2751
     35 N          63.5379   86.2365   15.8778 N.am    1  UNL1       -0.3040
     36 H          64.3736   86.6293   15.5365 H       1  UNL1        0.1494
@<TRIPOS>BOND
     1    32    33    1
     2    33    34    2
     3    33    35   am
     4    35    31    1
     5    31    30    1
     6    30    24    1
     7    24    25   ar
     8    25    26   ar
     9    26    27   ar
    10    27    28   ar
    11    28    29   ar
    12    29     1    1
    13     1     2   ar
    14     2     3   ar
    15     3     4   ar
    16     7     4    1
    17     7     8    1
    18     8     9    1
    19     9    10    1
    20    10    11    1
    21    11    12    1
    22    12    13    1
    23    12    16    1
    24    16    17   ar
    25    17    18   ar
    26    18    19   ar
    27    19    20    1
    28    19    21   ar
    29    21    22    1
    30    21    23   ar
    31     4     5   ar
    32     5     6    1
    33    29    24   ar
    34     5     1   ar
    35    12     7    1
    36    23    16   ar
    37    35    36    1
    38     9    14    1
    39    13    15    1
@<TRIPOS>MOLECULE
*****
 36 39 0 0 0
SMALL
GASTEIGER

@<TRIPOS>ATOM
      1 C          62.8001   89.1872   11.3835 C.ar    1  UNL1        0.1284
      2 N          63.4010   88.0574   10.6010 N.ar    1  UNL1       -0.0768
      3 O          62.5702   87.8535    9.3688 O.2     1  UNL1       -0.3571
      4 C          61.4557   88.8573    9.3899 C.ar    1  UNL1        0.1640
      5 C          61.5978   89.6816   10.6350 C.ar    1  UNL1        0.0883
      6 BR         60.6960   90.8032   11.0575 Br      1  UNL1       -0.0444
      7 C          60.3869   89.0100    8.3486 C.3     1  UNL1        0.1048
      8 C          60.3213   90.2577    7.5185 C.3     1  UNL1        0.0790
      9 N          59.2525   90.4103    6.4773 N.3     1  UNL1       -0.2969
     10 C          58.2492   89.3154    6.2661 C.3     1  UNL1        0.0714
     11 C          58.3148   88.0678    7.0962 C.3     1  UNL1        0.0487
     12 C          59.3836   87.9151    8.1375 C.3     1  UNL1        0.1164
     13 O          58.6649   86.6097    8.3086 O.3     1  UNL1       -0.3822
     14 H          59.7278   90.5501    5.5857 H       1  UNL1        0.1233
     15 H          57.9255   86.5631    7.6824 H       1  UNL1        0.2107
     16 C          60.2029   87.3090    9.2382 C.ar    1  UNL1        0.0046
     17 C          59.9170   87.6623   10.6676 C.ar    1  UNL1        0.0004
     18 C          60.7363   87.0563   11.7683 C.ar    1  UNL1        0.0317
     19 C          61.8416   86.0969   11.4395 C.ar    1  UNL1        0.1674
     20 F          62.6608   85.4909   12.5402 F       1  UNL1       -0.2018
     21 C          62.1275   85.7436   10.0100 C.ar    1  UNL1        0.1671
     22 F          63.2327   84.7843    9.6812 F       1  UNL1       -0.2018
     23 C          61.3082   86.3496    8.9094 C.ar    1  UNL1        0.0299
     24 C          64.1022   91.0022   12.7103 C.ar    1  UNL1       -0.0189
     25 C          64.6136   91.5428   14.0127 C.ar    1  UNL1       -0.0042
     26 C          64.3344   90.8088   15.2907 C.ar    1  UNL1       -0.0003
     27 C          63.5437   89.5344   15.2664 C.ar    1  UNL1        0.0000
     28 C          63.0323   88.9939   13.9640 C.ar    1  UNL1        0.0013
     29 C          63.3115   89.7278   12.6860 C.ar    1  UNL1        0.0175
     30 C          64.3814   91.7362   11.4323 C.3     1  UNL1        0.0476
     31 C          65.4918   92.7428   11.3727 C.3     1  UNL1        0.0941
     32 C          68.7245   92.4567    9.0885 C.3     1  UNL1        0.0946
     33 C          67.8283   92.3988   10.2899 C.2     1  UNL1        0.2230
     34 O          68.3723   91.9389   11.6099 O.2     1  UNL1       -0.2751
     35 N          66.3880   92.8008   10.1713 N.am    1  UNL1       -0.3040
     36 H          66.0309   93.1026    9.3049 H       1  UNL1        0.1494
@<TRIPOS>BOND
     1    32    33    1
     2    33    34    2
     3    33    35   am
     4    35    31    1
     5    31    30    1
     6    30    24    1
     7    24    25   ar
     8    25    26   ar
     9    26    27   ar
    10    27    28   ar
    11    28    29   ar
    12    29     1    1
    13     1     2   ar
    14     2     3   ar
    15     3     4   ar
    16     7     4    1
    17     7     8    1
    18     8     9    1
    19     9    10    1
    20    10    11    1
    21    11    12    1
    22    12    13    1
    23    12    16    1
    24    16    17   ar
    25    17    18   ar
    26    18    19   ar
    27    19    20    1
    28    19    21   ar
    29    21    22    1
    30    21    23   ar
    31     4     5   ar
    32     5     6    1
    33    29    24   ar
    34     5     1   ar
    35    12     7    1
    36    23    16   ar
    37    35    36    1
    38     9    14    1
    39    13    15    1
@<TRIPOS>MOLECULE
*****
 36 39 0 0 0
SMALL
GASTEIGER

@<TRIPOS>ATOM
      1 C          62.1488   85.4641   12.0761 C.ar    1  UNL1        0.1284
      2 N          60.8768   86.0623   11.5526 N.ar    1  UNL1       -0.0768
      3 O          61.0319   87.5543   11.5525 O.2     1  UNL1       -0.3571
      4 C          62.3998   87.8782   12.0760 C.ar    1  UNL1        0.1640
      5 C          63.0901   86.5864   12.3996 C.ar    1  UNL1        0.0883
      6 BR         64.4779   86.4422   12.9501 Br      1  UNL1       -0.0444
      7 C          62.9761   89.2526   12.2460 C.3     1  UNL1        0.1048
      8 C          63.5618   89.6624   13.5648 C.3     1  UNL1        0.0790
      9 N          64.1381   91.0367   13.7348 N.3     1  UNL1       -0.2969
     10 C          64.1288   92.0013   12.5861 C.3     1  UNL1        0.0714
     11 C          63.5432   91.5915   11.2673 C.3     1  UNL1        0.0487
     12 C          62.9669   90.2171   11.0973 C.3     1  UNL1        0.1164
     13 O          62.7287   90.7712    9.7239 O.3     1  UNL1       -0.3822
     14 H          65.1129   90.9153   14.0095 H       1  UNL1        0.1233
     15 H          63.0597   91.6819    9.6807 H       1  UNL1        0.2107
     16 C          62.3078   89.0351   10.4503 C.ar    1  UNL1        0.0046
     17 C          60.8115   88.9388   10.4117 C.ar    1  UNL1        0.0004
     18 C          60.1524   87.7568    9.7647 C.ar    1  UNL1        0.0317
     19 C          60.9898   86.6711    9.1564 C.ar    1  UNL1        0.1674
     20 F          60.3307   85.4891    8.5094 F       1  UNL1       -0.2018
     21 C          62.4862   86.7674    9.1950 C.ar    1  UNL1        0.1671
     22 F          63.3236   85.6817    8.5867 F       1  UNL1       -0.2018
     23 C          63.1452   87.9494    9.8420 C.ar    1  UNL1        0.0299
     24 C          62.3863   83.3823   13.6123 C.ar    1  UNL1       -0.0189
     25 C          62.6677   81.9188   13.7824 C.ar    1  UNL1       -0.0042
     26 C          62.9931   81.0736   12.5867 C.ar    1  UNL1       -0.0003
     27 C          63.0371   81.6919   11.2208 C.ar    1  UNL1        0.0000
     28 C          62.7557   83.1554   11.0506 C.ar    1  UNL1        0.0013
     29 C          62.4303   84.0006   12.2464 C.ar    1  UNL1        0.0175
     30 C          62.0609   84.2275   14.8080 C.3     1  UNL1        0.0476
     31 C          63.0926   84.4470   15.8744 C.3     1  UNL1        0.0941
     32 C          63.0891   88.2001   17.1644 C.3     1  UNL1        0.0946
     33 C          62.6231   86.8103   16.8464 C.2     1  UNL1        0.2230
     34 O          61.2219   86.3938   17.1823 O.2     1  UNL1       -0.2751
     35 N          63.5586   85.8369   16.1924 N.am    1  UNL1       -0.3040
     36 H          64.4783   86.1102   15.9720 H       1  UNL1        0.1494
@<TRIPOS>BOND
     1    32    33    1
     2    33    34    2
     3    33    35   am
     4    35    31    1
     5    31    30    1
     6    30    24    1
     7    24    25   ar
     8    25    26   ar
     9    26    27   ar
    10    27    28   ar
    11    28    29   ar
    12    29     1    1
    13     1     2   ar
    14     2     3   ar
    15     3     4   ar
    16     7     4    1
    17     7     8    1
    18     8     9    1
    19     9    10    1
    20    10    11    1
    21    11    12    1
    22    12    13    1
    23    12    16    1
    24    16    17   ar
    25    17    18   ar
    26    18    19   ar
    27    19    20    1
    28    19    21   ar
    29    21    22    1
    30    21    23   ar
    31     4     5   ar
    32     5     6    1
    33    29    24   ar
    34     5     1   ar
    35    12     7    1
    36    23    16   ar
    37    35    36    1
    38     9    14    1
    39    13    15    1
@<TRIPOS>MOLECULE
*****
 36 39 0 0 0
SMALL
GASTEIGER

@<TRIPOS>ATOM
      1 C          62.1493   86.4520   12.2125 C.ar    1  UNL1        0.1284
      2 N          60.9417   87.0997   12.8224 N.ar    1  UNL1       -0.0768
      3 O          60.0554   87.5705   11.7076 O.2     1  UNL1       -0.3571
      4 C          60.7153   87.2137   10.4086 C.ar    1  UNL1        0.1640
      5 C          62.0094   86.5225   10.7207 C.ar    1  UNL1        0.0883
      6 BR         62.9912   85.9944    9.7171 Br      1  UNL1       -0.0444
      7 C          60.1757   87.4982    9.0382 C.3     1  UNL1        0.1048
      8 C          59.6263   86.3810    8.2017 C.3     1  UNL1        0.0790
      9 N          59.0868   86.6655    6.8313 N.3     1  UNL1       -0.2969
     10 C          59.0967   88.0673    6.2975 C.3     1  UNL1        0.0714
     11 C          59.6461   89.1846    7.1341 C.3     1  UNL1        0.0487
     12 C          60.1856   88.9000    8.5044 C.3     1  UNL1        0.1164
     13 O          60.4099   90.3817    8.4387 O.3     1  UNL1       -0.3822
     14 H          58.1150   86.3557    6.8273 H       1  UNL1        0.1233
     15 H          60.1001   90.7179    7.5832 H       1  UNL1        0.2107
     16 C          60.8030   89.1300    9.8520 C.ar    1  UNL1        0.0046
     17 C          62.2947   89.1057   10.0076 C.ar    1  UNL1        0.0004
     18 C          62.9121   89.3357   11.3552 C.ar    1  UNL1        0.0317
     19 C          62.0377   89.5901   12.5472 C.ar    1  UNL1        0.1674
     20 F          62.6552   89.8200   13.8947 F       1  UNL1       -0.2018
     21 C          60.5460   89.6144   12.3916 C.ar    1  UNL1        0.1671
     22 F          59.6717   89.8688   13.5836 F       1  UNL1       -0.2018
     23 C          59.9287   89.3844   11.0441 C.ar    1  UNL1        0.0299
     24 C          63.6605   84.4041   12.7346 C.ar    1  UNL1       -0.0189
     25 C          64.8068   83.7933   13.4847 C.ar    1  UNL1       -0.0042
     26 C          65.5884   84.6194   14.4629 C.ar    1  UNL1       -0.0003
     27 C          65.2236   86.0563   14.6908 C.ar    1  UNL1        0.0000
     28 C          64.0773   86.6672   13.9407 C.ar    1  UNL1        0.0013
     29 C          63.2957   85.8411   12.9626 C.ar    1  UNL1        0.0175
     30 C          62.8789   83.5780   11.7565 C.3     1  UNL1        0.0476
     31 C          62.9396   82.0807   11.8225 C.3     1  UNL1        0.0941
     32 C          60.3027   80.3677   14.2437 C.3     1  UNL1        0.0946
     33 C          61.4932   81.1464   13.7680 C.2     1  UNL1        0.2230
     34 O          62.4279   81.7693   14.7621 O.2     1  UNL1       -0.2751
     35 N          61.7490   81.3021   12.2981 N.am    1  UNL1       -0.3040
     36 H          61.1355   80.8932   11.6457 H       1  UNL1        0.1494
@<TRIPOS>BOND
     1    32    33    1
     2    33    34    2
     3    33    35   am
     4    35    31    1
     5    31    30    1
     6    30    24    1
     7    24    25   ar
     8    25    26   ar
     9    26    27   ar
    10    27    28   ar
    11    28    29   ar
    12    29     1    1
    13     1     2   ar
    14     2     3   ar
    15     3     4   ar
    16     7     4    1
    17     7     8    1
    18     8     9    1
    19     9    10    1
    20    10    11    1
    21    11    12    1
    22    12    13    1
    23    12    16    1
    24    16    17   ar
    25    17    18   ar
    26    18    19   ar
    27    19    20    1
    28    19    21   ar
    29    21    22    1
    30    21    23   ar
    31     4     5   ar
    32     5     6    1
    33    29    24   ar
    34     5     1   ar
    35    12     7    1
    36    23    16   ar
    37    35    36    1
    38     9    14    1
    39    13    15    1
