@<TRIPOS>MOLECULE
*****
 42 43 0 0 0
SMALL
GASTEIGER

@<TRIPOS>ATOM
      1 O          63.5282   88.8789   14.0524 O.3     1  UNL1       -0.2926
      2 P          63.5777   90.0889   14.9375 P.3     1  UNL1        0.3697
      3 O          62.2763   89.6839   15.5639 O.2     1  UNL1       -0.2553
      4 O          63.6271   91.2989   15.8226 O.3     1  UNL1       -0.3218
      5 H          62.8443   91.3128   16.3953 H       1  UNL1        0.2198
      6 C          64.8790   90.4940   14.3111 C.3     1  UNL1        0.2579
      7 O          65.0708   91.8989   13.8219 O.3     1  UNL1       -0.3426
      8 C          66.3773   92.6001   14.0481 C.3     1  UNL1        0.1387
      9 C          67.5666   91.8298   14.5404 C.3     1  UNL1        0.0342
     10 C          66.4947   94.0717   13.7821 C.3     1  UNL1        0.1384
     11 N          66.5297   94.5782   12.3706 N.ar    1  UNL1       -0.2918
     12 C          65.9831   95.8901   11.8908 C.ar    1  UNL1        0.1798
     13 N          66.2332   95.9844   10.4148 N.ar    1  UNL1       -0.2195
     14 C          66.9343   94.7308    9.9824 C.ar    1  UNL1        0.1481
     15 C          67.4295   94.2685    8.6441 C.ar    1  UNL1        0.1480
     16 N          67.2462   95.1375    7.4354 N.pl3   1  UNL1       -0.3413
     17 N          68.1080   92.9370    8.5147 N.ar    1  UNL1       -0.2078
     18 C          68.2913   92.0679    9.7234 C.ar    1  UNL1        0.2015
     19 N          67.7961   92.5303   11.0617 N.ar    1  UNL1       -0.2048
     20 C          67.1176   93.8618   11.1911 C.ar    1  UNL1        0.1674
     21 H          66.8009   96.0114    7.5204 H       1  UNL1        0.1438
     22 H          67.5713   94.8340    6.5570 H       1  UNL1        0.1438
     23 C          63.4808   89.0413   12.5620 C.3     1  UNL1        0.1514
     24 C          62.2439   89.5783   11.9049 C.3     1  UNL1        0.0326
     25 C          62.1934   89.7321   10.4137 C.3     1  UNL1        0.0026
     26 C          60.8712   89.7453    9.7055 C.3     1  UNL1        0.0001
     27 C          60.4203   88.5392    8.9361 C.3     1  UNL1        0.0000
     28 C          60.2048   87.2349    9.6448 C.3     1  UNL1        0.0000
     29 C          61.2066   86.1279    9.4994 C.3     1  UNL1        0.0000
     30 C          62.4082   86.0812   10.3961 C.3     1  UNL1        0.0000
     31 C          62.6715   84.8656   11.2346 C.3     1  UNL1        0.0000
     32 C          63.4958   83.7394   10.6849 C.3     1  UNL1        0.0000
     33 C          63.7929   82.5417   11.5376 C.3     1  UNL1        0.0000
     34 C          62.8611   81.3663   11.5306 C.3     1  UNL1        0.0000
     35 C          62.6684   80.5545   12.7771 C.3     1  UNL1        0.0000
     36 C          62.3475   81.2362   14.0741 C.3     1  UNL1        0.0000
     37 C          62.2384   82.7312   14.1286 C.3     1  UNL1        0.0000
     38 C          62.9836   83.4998   15.1793 C.3     1  UNL1        0.0010
     39 C          64.0998   84.4208   14.7846 C.3     1  UNL1        0.0140
     40 C          64.1987   85.7856   15.3990 C.3     1  UNL1        0.0770
     41 C          62.6042   86.4451   17.8532 C.1     1  UNL1       -0.0141
     42 C          63.4015   86.1154   16.6262 C.1     1  UNL1       -0.0779
@<TRIPOS>BOND
     1    41    42    3
     2    42    40    1
     3    40    39    1
     4    39    38    1
     5    38    37    1
     6    37    36    1
     7    36    35    1
     8    35    34    1
     9    34    33    1
    10    33    32    1
    11    32    31    1
    12    31    30    1
    13    30    29    1
    14    29    28    1
    15    28    27    1
    16    27    26    1
    17    26    25    1
    18    25    24    1
    19    24    23    1
    20    23     1    1
    21     1     2    1
    22     2     3    2
    23     2     4    1
    24     2     6    1
    25     6     7    1
    26     7     8    1
    27     8     9    1
    28     8    10    1
    29    10    11    1
    30    11    12   ar
    31    12    13   ar
    32    13    14   ar
    33    14    15   ar
    34    15    16    1
    35    15    17   ar
    36    17    18   ar
    37    18    19   ar
    38    19    20   ar
    39    20    11   ar
    40    20    14   ar
    41     4     5    1
    42    16    21    1
    43    16    22    1
@<TRIPOS>MOLECULE
*****
 42 43 0 0 0
SMALL
GASTEIGER

@<TRIPOS>ATOM
      1 O          63.4989   89.1776   14.4354 O.3     1  UNL1       -0.2926
      2 P          63.4057   90.1000   15.6146 P.3     1  UNL1        0.3697
      3 O          62.2369   89.3169   16.1348 O.2     1  UNL1       -0.2553
      4 O          63.3125   91.0225   16.7937 O.3     1  UNL1       -0.3218
      5 H          62.5799   90.7439   17.3651 H       1  UNL1        0.2198
      6 C          64.5745   90.8831   15.0943 C.3     1  UNL1        0.2579
      7 O          64.9576   92.1796   15.7440 O.3     1  UNL1       -0.3426
      8 C          66.2678   92.8283   15.4086 C.3     1  UNL1        0.1387
      9 C          67.4555   92.6259   16.3021 C.3     1  UNL1        0.0342
     10 C          66.3904   93.6795   14.1794 C.3     1  UNL1        0.1384
     11 N          67.0565   93.1326   12.9518 N.ar    1  UNL1       -0.2918
     12 C          67.8922   91.8889   12.8820 C.ar    1  UNL1        0.1798
     13 N          68.3560   91.7210   11.4655 N.ar    1  UNL1       -0.2195
     14 C          67.8071   92.8609   10.6597 C.ar    1  UNL1        0.1481
     15 C          67.9348   93.2173    9.2083 C.ar    1  UNL1        0.1480
     16 N          68.7380   92.3448    8.2897 N.pl3   1  UNL1       -0.3413
     17 N          67.2594   94.4460    8.6755 N.ar    1  UNL1       -0.2078
     18 C          66.4562   95.3184    9.5941 C.ar    1  UNL1        0.2015
     19 N          66.3285   94.9621   11.0455 N.ar    1  UNL1       -0.2048
     20 C          67.0039   93.7334   11.5783 C.ar    1  UNL1        0.1674
     21 H          69.1813   91.5384    8.6395 H       1  UNL1        0.1438
     22 H          68.8218   92.5787    7.3371 H       1  UNL1        0.1438
     23 C          63.7761   89.7320   13.0695 C.3     1  UNL1        0.1514
     24 C          62.8877   89.3670   11.9173 C.3     1  UNL1        0.0326
     25 C          61.4351   89.7401   11.9429 C.3     1  UNL1        0.0026
     26 C          60.7946   90.3446   10.7287 C.3     1  UNL1        0.0001
     27 C          60.1891   89.4588    9.6805 C.3     1  UNL1        0.0000
     28 C          59.9215   88.0142    9.9826 C.3     1  UNL1        0.0000
     29 C          60.4461   86.9470    9.0681 C.3     1  UNL1        0.0000
     30 C          61.5954   86.0861    9.5017 C.3     1  UNL1        0.0000
     31 C          62.6365   85.6678    8.5063 C.3     1  UNL1        0.0000
     32 C          63.5432   84.5121    8.8100 C.3     1  UNL1        0.0000
     33 C          63.5481   83.9028   10.1807 C.3     1  UNL1        0.0000
     34 C          63.9260   82.4623   10.3597 C.3     1  UNL1        0.0000
     35 C          64.0253   81.8786   11.7378 C.3     1  UNL1        0.0000
     36 C          63.0114   80.8755   12.2024 C.3     1  UNL1        0.0000
     37 C          62.6943   80.7511   13.6632 C.3     1  UNL1        0.0000
     38 C          61.7430   81.7146   14.3088 C.3     1  UNL1        0.0010
     39 C          62.2365   83.0466   14.7907 C.3     1  UNL1        0.0140
     40 C          63.7035   83.2679   15.0114 C.3     1  UNL1        0.0770
     41 C          64.8369   86.0430   14.8900 C.1     1  UNL1       -0.0141
     42 C          64.2702   84.6555   14.9507 C.1     1  UNL1       -0.0779
@<TRIPOS>BOND
     1    41    42    3
     2    42    40    1
     3    40    39    1
     4    39    38    1
     5    38    37    1
     6    37    36    1
     7    36    35    1
     8    35    34    1
     9    34    33    1
    10    33    32    1
    11    32    31    1
    12    31    30    1
    13    30    29    1
    14    29    28    1
    15    28    27    1
    16    27    26    1
    17    26    25    1
    18    25    24    1
    19    24    23    1
    20    23     1    1
    21     1     2    1
    22     2     3    2
    23     2     4    1
    24     2     6    1
    25     6     7    1
    26     7     8    1
    27     8     9    1
    28     8    10    1
    29    10    11    1
    30    11    12   ar
    31    12    13   ar
    32    13    14   ar
    33    14    15   ar
    34    15    16    1
    35    15    17   ar
    36    17    18   ar
    37    18    19   ar
    38    19    20   ar
    39    20    11   ar
    40    20    14   ar
    41     4     5    1
    42    16    21    1
    43    16    22    1
@<TRIPOS>MOLECULE
*****
 42 43 0 0 0
SMALL
GASTEIGER

@<TRIPOS>ATOM
      1 O          65.2790   91.2205   15.0048 O.3     1  UNL1       -0.2926
      2 P          63.9904   90.4846   15.2239 P.3     1  UNL1        0.3697
      3 O          63.4225   91.6862   15.9193 O.2     1  UNL1       -0.2553
      4 O          62.7018   89.7488   15.4429 O.3     1  UNL1       -0.3218
      5 H          62.0778   90.3228   15.9141 H       1  UNL1        0.2198
      6 C          64.5583   89.2831   14.5284 C.3     1  UNL1        0.2579
      7 O          63.7094   88.0633   14.3249 O.3     1  UNL1       -0.3426
      8 C          64.0181   86.8011   15.0744 C.3     1  UNL1        0.1387
      9 C          63.5630   86.6419   16.4948 C.3     1  UNL1        0.0342
     10 C          64.7818   85.6981   14.4034 C.3     1  UNL1        0.1384
     11 N          64.1787   84.3294   14.2900 N.ar    1  UNL1       -0.2918
     12 C          63.6530   83.5009   15.4245 C.ar    1  UNL1        0.1798
     13 N          63.1447   82.2084   14.8578 N.ar    1  UNL1       -0.2195
     14 C          63.3562   82.2381   13.3731 C.ar    1  UNL1        0.1481
     15 C          63.0495   81.2409   12.2954 C.ar    1  UNL1        0.1480
     16 N          62.4105   79.9300   12.6464 N.pl3   1  UNL1       -0.3413
     17 N          63.3819   81.5546   10.8668 N.ar    1  UNL1       -0.2078
     18 C          64.0209   82.8655   10.5158 C.ar    1  UNL1        0.2015
     19 N          64.3276   83.8627   11.5935 N.ar    1  UNL1       -0.2048
     20 C          63.9953   83.5490   13.0222 C.ar    1  UNL1        0.1674
     21 H          62.1924   79.7241   13.5841 H       1  UNL1        0.1438
     22 H          62.2092   79.2755   11.9390 H       1  UNL1        0.1438
     23 C          65.6991   92.2980   15.9600 C.3     1  UNL1        0.1514
     24 C          67.1555   92.5363   16.2285 C.3     1  UNL1        0.0326
     25 C          68.0738   92.9122   15.1036 C.3     1  UNL1        0.0026
     26 C          68.2127   92.0081   13.9148 C.3     1  UNL1        0.0001
     27 C          67.5274   92.3531   12.6259 C.3     1  UNL1        0.0000
     28 C          66.5051   93.4503   12.5903 C.3     1  UNL1        0.0000
     29 C          65.7135   93.6976   11.3404 C.3     1  UNL1        0.0000
     30 C          65.1755   92.5403   10.5520 C.3     1  UNL1        0.0000
     31 C          64.1078   91.6651   11.1383 C.3     1  UNL1        0.0000
     32 C          63.1162   90.9874   10.2397 C.3     1  UNL1        0.0000
     33 C          62.4120   89.7460   10.7011 C.3     1  UNL1        0.0000
     34 C          60.9486   89.7913   11.0276 C.3     1  UNL1        0.0000
     35 C          59.9512   89.1817   10.0876 C.3     1  UNL1        0.0000
     36 C          60.2762   89.0538    8.6288 C.3     1  UNL1        0.0000
     37 C          59.4808   88.1232    7.7621 C.3     1  UNL1        0.0000
     38 C          59.5264   86.6446    8.0099 C.3     1  UNL1        0.0010
     39 C          60.7211   85.8479    7.5764 C.3     1  UNL1        0.0140
     40 C          61.9493   85.8094    8.4367 C.3     1  UNL1        0.0770
     41 C          61.7073   86.1145   11.4114 C.1     1  UNL1       -0.0141
     42 C          61.8283   85.9620    9.9241 C.1     1  UNL1       -0.0779
@<TRIPOS>BOND
     1    41    42    3
     2    42    40    1
     3    40    39    1
     4    39    38    1
     5    38    37    1
     6    37    36    1
     7    36    35    1
     8    35    34    1
     9    34    33    1
    10    33    32    1
    11    32    31    1
    12    31    30    1
    13    30    29    1
    14    29    28    1
    15    28    27    1
    16    27    26    1
    17    26    25    1
    18    25    24    1
    19    24    23    1
    20    23     1    1
    21     1     2    1
    22     2     3    2
    23     2     4    1
    24     2     6    1
    25     6     7    1
    26     7     8    1
    27     8     9    1
    28     8    10    1
    29    10    11    1
    30    11    12   ar
    31    12    13   ar
    32    13    14   ar
    33    14    15   ar
    34    15    16    1
    35    15    17   ar
    36    17    18   ar
    37    18    19   ar
    38    19    20   ar
    39    20    11   ar
    40    20    14   ar
    41     4     5    1
    42    16    21    1
    43    16    22    1
@<TRIPOS>MOLECULE
*****
 42 43 0 0 0
SMALL
GASTEIGER

@<TRIPOS>ATOM
      1 O          63.1286   85.7405   13.3085 O.3     1  UNL1       -0.2926
      2 P          63.9090   85.2650   14.4979 P.3     1  UNL1        0.3697
      3 O          63.3032   83.9007   14.3499 O.2     1  UNL1       -0.2553
      4 O          64.6894   84.7894   15.6873 O.3     1  UNL1       -0.3218
      5 H          64.4882   83.8551   15.8535 H       1  UNL1        0.2198
      6 C          64.5147   86.6292   14.6459 C.3     1  UNL1        0.2579
      7 O          64.0292   87.7622   13.7913 O.3     1  UNL1       -0.3426
      8 C          63.4939   89.0086   14.4315 C.3     1  UNL1        0.1387
      9 C          63.6018   89.1951   15.9159 C.3     1  UNL1        0.0342
     10 C          62.8507   90.0687   13.5871 C.3     1  UNL1        0.1384
     11 N          63.6959   90.9450   12.7109 N.ar    1  UNL1       -0.2918
     12 C          63.6081   91.0450   11.2168 C.ar    1  UNL1        0.1798
     13 N          64.6352   92.0369   10.7575 N.ar    1  UNL1       -0.2195
     14 C          65.3579   92.5499   11.9677 C.ar    1  UNL1        0.1481
     15 C          66.4696   93.5444   12.1264 C.ar    1  UNL1        0.1480
     16 N          67.0502   94.2193   10.9191 N.pl3   1  UNL1       -0.3413
     17 N          67.0007   93.8639   13.4923 N.ar    1  UNL1       -0.2078
     18 C          66.4202   93.1891   14.6995 C.ar    1  UNL1        0.2015
     19 N          65.3085   92.1946   14.5409 N.ar    1  UNL1       -0.2048
     20 C          64.7774   91.8750   13.1750 C.ar    1  UNL1        0.1674
     21 H          66.7015   94.0095   10.0226 H       1  UNL1        0.1438
     22 H          67.7798   94.8720   11.0232 H       1  UNL1        0.1438
     23 C          62.7908   84.7854   12.2023 C.3     1  UNL1        0.1514
     24 C          62.5766   85.2972   10.8087 C.3     1  UNL1        0.0326
     25 C          63.2711   84.6396    9.6532 C.3     1  UNL1        0.0026
     26 C          63.1275   85.2053    8.2714 C.3     1  UNL1        0.0001
     27 C          61.9504   84.8241    7.4234 C.3     1  UNL1        0.0000
     28 C          60.8277   85.7974    7.2176 C.3     1  UNL1        0.0000
     29 C          60.1617   86.4352    8.4007 C.3     1  UNL1        0.0000
     30 C          60.5585   87.8165    8.8303 C.3     1  UNL1        0.0000
     31 C          59.7631   89.0024    8.3710 C.3     1  UNL1        0.0000
     32 C          59.1252   88.9974    7.0134 C.3     1  UNL1        0.0000
     33 C          59.5849   89.9670    5.9653 C.3     1  UNL1        0.0000
     34 C          58.5976   90.8866    5.3097 C.3     1  UNL1        0.0000
     35 C          59.0461   92.2192    4.7875 C.3     1  UNL1        0.0000
     36 C          60.0425   92.2897    3.6685 C.3     1  UNL1        0.0000
     37 C          59.7413   93.1051    2.4462 C.3     1  UNL1        0.0000
     38 C          60.6956   93.1025    1.2889 C.3     1  UNL1        0.0010
     39 C          62.0116   93.8136    1.4004 C.3     1  UNL1        0.0140
     40 C          63.2854   93.0258    1.4812 C.3     1  UNL1        0.0770
     41 C          63.5010   90.7136    3.3807 C.1     1  UNL1       -0.0141
     42 C          63.3932   91.8696    2.4310 C.1     1  UNL1       -0.0779
@<TRIPOS>BOND
     1    41    42    3
     2    42    40    1
     3    40    39    1
     4    39    38    1
     5    38    37    1
     6    37    36    1
     7    36    35    1
     8    35    34    1
     9    34    33    1
    10    33    32    1
    11    32    31    1
    12    31    30    1
    13    30    29    1
    14    29    28    1
    15    28    27    1
    16    27    26    1
    17    26    25    1
    18    25    24    1
    19    24    23    1
    20    23     1    1
    21     1     2    1
    22     2     3    2
    23     2     4    1
    24     2     6    1
    25     6     7    1
    26     7     8    1
    27     8     9    1
    28     8    10    1
    29    10    11    1
    30    11    12   ar
    31    12    13   ar
    32    13    14   ar
    33    14    15   ar
    34    15    16    1
    35    15    17   ar
    36    17    18   ar
    37    18    19   ar
    38    19    20   ar
    39    20    11   ar
    40    20    14   ar
    41     4     5    1
    42    16    21    1
    43    16    22    1
@<TRIPOS>MOLECULE
*****
 42 43 0 0 0
SMALL
GASTEIGER

@<TRIPOS>ATOM
      1 O          62.8220   84.2087   14.2921 O.3     1  UNL1       -0.2926
      2 P          64.1372   84.8278   14.6622 P.3     1  UNL1        0.3697
      3 O          64.6596   83.4794   15.0610 O.2     1  UNL1       -0.2553
      4 O          65.4524   85.4468   15.0322 O.3     1  UNL1       -0.3218
      5 H          66.0544   84.7582   15.3551 H       1  UNL1        0.2198
      6 C          63.6148   86.1761   14.2634 C.3     1  UNL1        0.2579
      7 O          64.2741   87.4194   14.7823 O.3     1  UNL1       -0.3426
      8 C          63.5724   88.2731   15.7966 C.3     1  UNL1        0.1387
      9 C          62.9659   87.6440   17.0157 C.3     1  UNL1        0.0342
     10 C          63.4770   89.7561   15.5916 C.3     1  UNL1        0.1384
     11 N          63.7165   90.3422   14.2318 N.ar    1  UNL1       -0.2918
     12 C          63.0250   89.9385   12.9635 C.ar    1  UNL1        0.1798
     13 N          63.5707   90.7818   11.8494 N.ar    1  UNL1       -0.2195
     14 C          64.5994   91.7067   12.4293 C.ar    1  UNL1        0.1481
     15 C          65.4657   92.7612   11.8068 C.ar    1  UNL1        0.1480
     16 N          65.3756   93.0328   10.3343 N.pl3   1  UNL1       -0.3413
     17 N          66.4222   93.5439   12.6567 N.ar    1  UNL1       -0.2078
     18 C          66.5123   93.2723   14.1291 C.ar    1  UNL1        0.2015
     19 N          65.6460   92.2178   14.7516 N.ar    1  UNL1       -0.2048
     20 C          64.6896   91.4350   13.9017 C.ar    1  UNL1        0.1674
     21 H          64.7478   92.5190    9.7765 H       1  UNL1        0.1438
     22 H          65.9442   93.7249    9.9257 H       1  UNL1        0.1438
     23 C          62.6564   82.7185   14.3333 C.3     1  UNL1        0.1514
     24 C          62.2316   81.9767   13.1007 C.3     1  UNL1        0.0326
     25 C          63.2346   81.6656   12.0296 C.3     1  UNL1        0.0026
     26 C          64.1202   82.7510   11.4933 C.3     1  UNL1        0.0001
     27 C          63.6432   83.6209   10.3683 C.3     1  UNL1        0.0000
     28 C          62.8235   84.8427   10.6605 C.3     1  UNL1        0.0000
     29 C          62.3637   85.7238    9.5369 C.3     1  UNL1        0.0000
     30 C          60.9849   86.3138    9.5626 C.3     1  UNL1        0.0000
     31 C          60.7474   87.6895    9.0139 C.3     1  UNL1        0.0000
     32 C          59.9125   87.8714    7.7810 C.3     1  UNL1        0.0000
     33 C          59.3031   89.2083    7.4785 C.3     1  UNL1        0.0000
     34 C          59.3747   89.7679    6.0887 C.3     1  UNL1        0.0000
     35 C          58.2535   90.6138    5.5621 C.3     1  UNL1        0.0000
     36 C          58.5475   91.9477    4.9423 C.3     1  UNL1        0.0000
     37 C          59.8142   92.1506    4.1650 C.3     1  UNL1        0.0000
     38 C          59.7602   92.7203    2.7784 C.3     1  UNL1        0.0010
     39 C          60.8320   93.6599    2.3112 C.3     1  UNL1        0.0140
     40 C          62.1395   93.1186    1.8141 C.3     1  UNL1        0.0770
     41 C          63.4634   90.8412    3.2497 C.1     1  UNL1       -0.0141
     42 C          62.8015   91.9799    2.5319 C.1     1  UNL1       -0.0779
@<TRIPOS>BOND
     1    41    42    3
     2    42    40    1
     3    40    39    1
     4    39    38    1
     5    38    37    1
     6    37    36    1
     7    36    35    1
     8    35    34    1
     9    34    33    1
    10    33    32    1
    11    32    31    1
    12    31    30    1
    13    30    29    1
    14    29    28    1
    15    28    27    1
    16    27    26    1
    17    26    25    1
    18    25    24    1
    19    24    23    1
    20    23     1    1
    21     1     2    1
    22     2     3    2
    23     2     4    1
    24     2     6    1
    25     6     7    1
    26     7     8    1
    27     8     9    1
    28     8    10    1
    29    10    11    1
    30    11    12   ar
    31    12    13   ar
    32    13    14   ar
    33    14    15   ar
    34    15    16    1
    35    15    17   ar
    36    17    18   ar
    37    18    19   ar
    38    19    20   ar
    39    20    11   ar
    40    20    14   ar
    41     4     5    1
    42    16    21    1
    43    16    22    1
@<TRIPOS>MOLECULE
*****
 42 43 0 0 0
SMALL
GASTEIGER

@<TRIPOS>ATOM
      1 O          63.7600   91.2464   16.7321 O.3     1  UNL1       -0.2926
      2 P          63.3771   90.2473   15.6808 P.3     1  UNL1        0.3697
      3 O          63.4303   91.3242   14.6381 O.2     1  UNL1       -0.2553
      4 O          62.9941   89.2483   14.6296 O.3     1  UNL1       -0.3218
      5 H          62.9440   89.6895   13.7672 H       1  UNL1        0.2198
      6 C          63.3239   89.1704   16.7236 C.3     1  UNL1        0.2579
      7 O          62.3988   88.0027   16.5494 O.3     1  UNL1       -0.3426
      8 C          62.5170   86.8108   17.4524 C.3     1  UNL1        0.1387
      9 C          62.7334   87.0035   18.9242 C.3     1  UNL1        0.0342
     10 C          62.4189   85.4262   16.8837 C.3     1  UNL1        0.1384
     11 N          63.2236   85.0536   15.6739 N.ar    1  UNL1       -0.2918
     12 C          64.4162   85.7945   15.1458 C.ar    1  UNL1        0.1798
     13 N          64.9066   85.0735   13.9253 N.ar    1  UNL1       -0.2195
     14 C          64.0171   83.8870   13.6990 C.ar    1  UNL1        0.1481
     15 C          64.0199   82.8163   12.6486 C.ar    1  UNL1        0.1480
     16 N          65.0601   82.8285   11.5679 N.pl3   1  UNL1       -0.3413
     17 N          62.9826   81.7333   12.6789 N.ar    1  UNL1       -0.2078
     18 C          61.9424   81.7210   13.7596 C.ar    1  UNL1        0.2015
     19 N          61.9396   82.7918   14.8100 N.ar    1  UNL1       -0.2048
     20 C          62.9770   83.8748   14.7797 C.ar    1  UNL1        0.1674
     21 H          65.7410   83.5394   11.5481 H       1  UNL1        0.1438
     22 H          65.0619   82.1258   10.8785 H       1  UNL1        0.1438
     23 C          64.5955   92.4373   16.3663 C.3     1  UNL1        0.1514
     24 C          66.0904   92.3635   16.4647 C.3     1  UNL1        0.0326
     25 C          66.9420   92.8690   15.3382 C.3     1  UNL1        0.0026
     26 C          66.3031   93.3119   14.0553 C.3     1  UNL1        0.0001
     27 C          66.3074   92.4027   12.8624 C.3     1  UNL1        0.0000
     28 C          65.7962   92.8962   11.5413 C.3     1  UNL1        0.0000
     29 C          64.8051   92.0781   10.7675 C.3     1  UNL1        0.0000
     30 C          63.6938   91.3708   11.4848 C.3     1  UNL1        0.0000
     31 C          63.0207   90.1915   10.8475 C.3     1  UNL1        0.0000
     32 C          61.7374   90.3774   10.0935 C.3     1  UNL1        0.0000
     33 C          60.4242   90.1365   10.7772 C.3     1  UNL1        0.0000
     34 C          60.1806   88.8446   11.4995 C.3     1  UNL1        0.0000
     35 C          60.3833   87.5387   10.7899 C.3     1  UNL1        0.0000
     36 C          61.3866   86.5514   11.3081 C.3     1  UNL1        0.0000
     37 C          62.2118   85.7468   10.3480 C.3     1  UNL1        0.0000
     38 C          62.3348   86.1814    8.9177 C.3     1  UNL1        0.0010
     39 C          61.5681   85.4633    7.8470 C.3     1  UNL1        0.0140
     40 C          60.1508   85.8537    7.5493 C.3     1  UNL1        0.0770
     41 C          59.3901   88.7525    7.4139 C.1     1  UNL1       -0.0141
     42 C          59.7704   87.3032    7.4816 C.1     1  UNL1       -0.0779
@<TRIPOS>BOND
     1    41    42    3
     2    42    40    1
     3    40    39    1
     4    39    38    1
     5    38    37    1
     6    37    36    1
     7    36    35    1
     8    35    34    1
     9    34    33    1
    10    33    32    1
    11    32    31    1
    12    31    30    1
    13    30    29    1
    14    29    28    1
    15    28    27    1
    16    27    26    1
    17    26    25    1
    18    25    24    1
    19    24    23    1
    20    23     1    1
    21     1     2    1
    22     2     3    2
    23     2     4    1
    24     2     6    1
    25     6     7    1
    26     7     8    1
    27     8     9    1
    28     8    10    1
    29    10    11    1
    30    11    12   ar
    31    12    13   ar
    32    13    14   ar
    33    14    15   ar
    34    15    16    1
    35    15    17   ar
    36    17    18   ar
    37    18    19   ar
    38    19    20   ar
    39    20    11   ar
    40    20    14   ar
    41     4     5    1
    42    16    21    1
    43    16    22    1
@<TRIPOS>MOLECULE
*****
 42 43 0 0 0
SMALL
GASTEIGER

@<TRIPOS>ATOM
      1 O          63.8214   89.7316   13.2456 O.3     1  UNL1       -0.2926
      2 P          63.6317   90.1084   14.6850 P.3     1  UNL1        0.3697
      3 O          62.1597   89.8491   14.5589 O.2     1  UNL1       -0.2553
      4 O          63.4420   90.4853   16.1244 O.3     1  UNL1       -0.3218
      5 H          62.5036   90.4084   16.3578 H       1  UNL1        0.2198
      6 C          65.1037   90.3678   14.8111 C.3     1  UNL1        0.2579
      7 O          65.5901   91.6578   15.4021 O.3     1  UNL1       -0.3426
      8 C          66.8439   92.2957   14.8815 C.3     1  UNL1        0.1387
      9 C          67.6465   93.2035   15.7658 C.3     1  UNL1        0.0342
     10 C          67.2952   92.0258   13.4767 C.3     1  UNL1        0.1384
     11 N          66.9485   92.9882   12.3796 N.ar    1  UNL1       -0.2918
     12 C          65.9983   94.1438   12.4881 C.ar    1  UNL1        0.1798
     13 N          65.9536   94.8337   11.1570 N.ar    1  UNL1       -0.2195
     14 C          66.8763   94.1046   10.2257 C.ar    1  UNL1        0.1481
     15 C          67.2359   94.3319    8.7874 C.ar    1  UNL1        0.1480
     16 N          66.6211   95.4725    8.0317 N.pl3   1  UNL1       -0.3413
     17 N          68.2104   93.4186    8.1047 N.ar    1  UNL1       -0.2078
     18 C          68.8253   92.2780    8.8603 C.ar    1  UNL1        0.2015
     19 N          68.4656   92.0507   10.2986 N.ar    1  UNL1       -0.2048
     20 C          67.4911   92.9640   10.9814 C.ar    1  UNL1        0.1674
     21 H          65.9814   96.0719    8.4799 H       1  UNL1        0.1438
     22 H          66.8571   95.6217    7.0877 H       1  UNL1        0.1438
     23 C          63.4720   90.7084   12.1622 C.3     1  UNL1        0.1514
     24 C          62.3614   90.3987   11.2027 C.3     1  UNL1        0.0326
     25 C          62.4428   89.1825   10.3285 C.3     1  UNL1        0.0026
     26 C          62.2635   87.8175   10.9240 C.3     1  UNL1        0.0001
     27 C          60.9979   87.0514   10.6763 C.3     1  UNL1        0.0000
     28 C          60.6493   86.6082    9.2863 C.3     1  UNL1        0.0000
     29 C          59.3824   87.0874    8.6418 C.3     1  UNL1        0.0000
     30 C          59.4316   87.7696    7.3068 C.3     1  UNL1        0.0000
     31 C          59.4607   89.2673    7.2304 C.3     1  UNL1        0.0000
     32 C          58.9657   89.9653    5.9984 C.3     1  UNL1        0.0000
     33 C          59.8841   90.8657    5.2265 C.3     1  UNL1        0.0000
     34 C          59.3589   92.1360    4.6262 C.3     1  UNL1        0.0000
     35 C          60.0938   92.7906    3.4942 C.3     1  UNL1        0.0000
     36 C          59.4947   92.8040    2.1191 C.3     1  UNL1        0.0000
     37 C          60.2176   93.4810    0.9926 C.3     1  UNL1        0.0000
     38 C          61.3954   94.3641    1.2806 C.3     1  UNL1        0.0010
     39 C          62.7831   93.8901    0.9650 C.3     1  UNL1        0.0140
     40 C          63.6810   93.4113    2.0671 C.3     1  UNL1        0.0770
     41 C          63.2840   90.6814    3.2462 C.1     1  UNL1       -0.0141
     42 C          63.4825   92.0463    2.6567 C.1     1  UNL1       -0.0779
@<TRIPOS>BOND
     1    41    42    3
     2    42    40    1
     3    40    39    1
     4    39    38    1
     5    38    37    1
     6    37    36    1
     7    36    35    1
     8    35    34    1
     9    34    33    1
    10    33    32    1
    11    32    31    1
    12    31    30    1
    13    30    29    1
    14    29    28    1
    15    28    27    1
    16    27    26    1
    17    26    25    1
    18    25    24    1
    19    24    23    1
    20    23     1    1
    21     1     2    1
    22     2     3    2
    23     2     4    1
    24     2     6    1
    25     6     7    1
    26     7     8    1
    27     8     9    1
    28     8    10    1
    29    10    11    1
    30    11    12   ar
    31    12    13   ar
    32    13    14   ar
    33    14    15   ar
    34    15    16    1
    35    15    17   ar
    36    17    18   ar
    37    18    19   ar
    38    19    20   ar
    39    20    11   ar
    40    20    14   ar
    41     4     5    1
    42    16    21    1
    43    16    22    1
@<TRIPOS>MOLECULE
*****
 42 43 0 0 0
SMALL
GASTEIGER

@<TRIPOS>ATOM
      1 O          63.9876   82.8076   14.7013 O.3     1  UNL1       -0.2926
      2 P          63.3482   81.8715   13.7191 P.3     1  UNL1        0.3697
      3 O          62.3713   81.4355   14.7706 O.2     1  UNL1       -0.2553
      4 O          62.7088   80.9353   12.7369 O.3     1  UNL1       -0.3218
      5 H          61.9754   80.4677   13.1663 H       1  UNL1        0.2198
      6 C          64.3251   82.3074   12.6676 C.3     1  UNL1        0.2579
      7 O          63.9193   82.3147   11.2236 O.3     1  UNL1       -0.3426
      8 C          63.3433   83.5576   10.6126 C.3     1  UNL1        0.1387
      9 C          63.8696   84.0622    9.3018 C.3     1  UNL1        0.0342
     10 C          62.2408   84.2959   11.3125 C.3     1  UNL1        0.1384
     11 N          62.1342   85.7862   11.1798 N.ar    1  UNL1       -0.2918
     12 C          62.7967   86.7998   12.0650 C.ar    1  UNL1        0.1798
     13 N          62.4182   88.1646   11.5709 N.ar    1  UNL1       -0.2195
     14 C          61.5218   87.9944   10.3803 C.ar    1  UNL1        0.1481
     15 C          60.8427   88.9881    9.4851 C.ar    1  UNL1        0.1480
     16 N          61.0183   90.4580    9.7268 N.pl3   1  UNL1       -0.3413
     17 N          59.9881   88.5117    8.3481 N.ar    1  UNL1       -0.2078
     18 C          59.8125   87.0418    8.1065 C.ar    1  UNL1        0.2015
     19 N          60.4916   86.0481    9.0017 N.ar    1  UNL1       -0.2048
     20 C          61.3462   86.5245   10.1386 C.ar    1  UNL1        0.1674
     21 H          61.5792   90.7706   10.4730 H       1  UNL1        0.1438
     22 H          60.5725   91.1102    9.1392 H       1  UNL1        0.1438
     23 C          64.4364   84.1684   14.2576 C.3     1  UNL1        0.1514
     24 C          64.3128   85.3391   15.1872 C.3     1  UNL1        0.0326
     25 C          63.4355   85.2442   16.4002 C.3     1  UNL1        0.0026
     26 C          62.4617   86.3425   16.7092 C.3     1  UNL1        0.0001
     27 C          62.9013   87.5307   17.5122 C.3     1  UNL1        0.0000
     28 C          63.1960   88.8318   16.8266 C.3     1  UNL1        0.0000
     29 C          63.9664   88.8438   15.5395 C.3     1  UNL1        0.0000
     30 C          63.4289   89.5836   14.3505 C.3     1  UNL1        0.0000
     31 C          64.3224   90.5036   13.5727 C.3     1  UNL1        0.0000
     32 C          63.7337   91.4477   12.5667 C.3     1  UNL1        0.0000
     33 C          64.3399   91.5602   11.1993 C.3     1  UNL1        0.0000
     34 C          65.1481   92.7699   10.8344 C.3     1  UNL1        0.0000
     35 C          66.0455   93.4077   11.8531 C.3     1  UNL1        0.0000
     36 C          66.1542   94.9019   11.9264 C.3     1  UNL1        0.0000
     37 C          65.7974   95.7392   10.7341 C.3     1  UNL1        0.0000
     38 C          66.8292   96.6289   10.1066 C.3     1  UNL1        0.0010
     39 C          67.4974   96.2170    8.8284 C.3     1  UNL1        0.0140
     40 C          67.2537   94.8499    8.2613 C.3     1  UNL1        0.0770
     41 C          68.8454   92.5086    9.2540 C.1     1  UNL1       -0.0141
     42 C          68.0496   93.6792    8.7577 C.1     1  UNL1       -0.0779
@<TRIPOS>BOND
     1    41    42    3
     2    42    40    1
     3    40    39    1
     4    39    38    1
     5    38    37    1
     6    37    36    1
     7    36    35    1
     8    35    34    1
     9    34    33    1
    10    33    32    1
    11    32    31    1
    12    31    30    1
    13    30    29    1
    14    29    28    1
    15    28    27    1
    16    27    26    1
    17    26    25    1
    18    25    24    1
    19    24    23    1
    20    23     1    1
    21     1     2    1
    22     2     3    2
    23     2     4    1
    24     2     6    1
    25     6     7    1
    26     7     8    1
    27     8     9    1
    28     8    10    1
    29    10    11    1
    30    11    12   ar
    31    12    13   ar
    32    13    14   ar
    33    14    15   ar
    34    15    16    1
    35    15    17   ar
    36    17    18   ar
    37    18    19   ar
    38    19    20   ar
    39    20    11   ar
    40    20    14   ar
    41     4     5    1
    42    16    21    1
    43    16    22    1
@<TRIPOS>MOLECULE
*****
 42 43 0 0 0
SMALL
GASTEIGER

@<TRIPOS>ATOM
      1 O          63.4086   90.8851   16.3471 O.3     1  UNL1       -0.2926
      2 P          63.3745   89.8307   15.2807 P.3     1  UNL1        0.3697
      3 O          63.2717   90.8965   14.2303 O.2     1  UNL1       -0.2553
      4 O          63.3404   88.7764   14.2144 O.3     1  UNL1       -0.3218
      5 H          63.2704   89.1989   13.3440 H       1  UNL1        0.2198
      6 C          63.4773   88.7649   16.3312 C.3     1  UNL1        0.2579
      7 O          63.5294   87.3202   15.9313 O.3     1  UNL1       -0.3426
      8 C          62.8974   86.2770   16.8045 C.3     1  UNL1        0.1387
      9 C          62.7497   86.5207   18.2772 C.3     1  UNL1        0.0342
     10 C          62.4132   84.9900   16.2050 C.3     1  UNL1        0.1384
     11 N          62.9472   84.5321   14.8801 N.ar    1  UNL1       -0.2918
     12 C          63.8250   85.3282   13.9606 C.ar    1  UNL1        0.1798
     13 N          64.1174   84.4858   12.7544 N.ar    1  UNL1       -0.2195
     14 C          63.4202   83.1691   12.9285 C.ar    1  UNL1        0.1481
     15 C          63.3505   81.9478   12.0605 C.ar    1  UNL1        0.1480
     16 N          64.0738   81.9191   10.7467 N.pl3   1  UNL1       -0.3413
     17 N          62.5576   80.7551   12.5062 N.ar    1  UNL1       -0.2078
     18 C          61.8343   80.7838   13.8200 C.ar    1  UNL1        0.2015
     19 N          61.9040   82.0051   14.6881 N.ar    1  UNL1       -0.2048
     20 C          62.6970   83.1977   14.2423 C.ar    1  UNL1        0.1674
     21 H          64.5943   82.7019   10.4541 H       1  UNL1        0.1438
     22 H          64.0281   81.1175   10.1769 H       1  UNL1        0.1438
     23 C          64.4358   91.9767   16.2900 C.3     1  UNL1        0.1514
     24 C          65.6985   91.7781   15.5052 C.3     1  UNL1        0.0326
     25 C          66.7802   92.8163   15.5494 C.3     1  UNL1        0.0026
     26 C          67.7907   92.8943   14.4436 C.3     1  UNL1        0.0001
     27 C          67.9405   91.7524   13.4826 C.3     1  UNL1        0.0000
     28 C          68.5519   91.9835   12.1326 C.3     1  UNL1        0.0000
     29 C          67.6727   92.2478   10.9462 C.3     1  UNL1        0.0000
     30 C          66.8004   93.4677   10.9162 C.3     1  UNL1        0.0000
     31 C          65.3142   93.3237   10.7731 C.3     1  UNL1        0.0000
     32 C          64.6532   92.0158   11.0928 C.3     1  UNL1        0.0000
     33 C          63.6305   91.4437   10.1564 C.3     1  UNL1        0.0000
     34 C          62.4467   90.7011   10.7016 C.3     1  UNL1        0.0000
     35 C          62.3080   89.2277   10.4569 C.3     1  UNL1        0.0000
     36 C          60.9695   88.6484   10.1063 C.3     1  UNL1        0.0000
     37 C          60.6489   87.2284   10.4681 C.3     1  UNL1        0.0000
     38 C          61.7469   86.2932   10.8800 C.3     1  UNL1        0.0010
     39 C          62.2776   85.2840    9.9054 C.3     1  UNL1        0.0140
     40 C          62.8763   85.7378    8.6071 C.3     1  UNL1        0.0770
     41 C          62.1900   84.3111    6.0588 C.1     1  UNL1       -0.0141
     42 C          62.5332   85.0244    7.3329 C.1     1  UNL1       -0.0779
@<TRIPOS>BOND
     1    41    42    3
     2    42    40    1
     3    40    39    1
     4    39    38    1
     5    38    37    1
     6    37    36    1
     7    36    35    1
     8    35    34    1
     9    34    33    1
    10    33    32    1
    11    32    31    1
    12    31    30    1
    13    30    29    1
    14    29    28    1
    15    28    27    1
    16    27    26    1
    17    26    25    1
    18    25    24    1
    19    24    23    1
    20    23     1    1
    21     1     2    1
    22     2     3    2
    23     2     4    1
    24     2     6    1
    25     6     7    1
    26     7     8    1
    27     8     9    1
    28     8    10    1
    29    10    11    1
    30    11    12   ar
    31    12    13   ar
    32    13    14   ar
    33    14    15   ar
    34    15    16    1
    35    15    17   ar
    36    17    18   ar
    37    18    19   ar
    38    19    20   ar
    39    20    11   ar
    40    20    14   ar
    41     4     5    1
    42    16    21    1
    43    16    22    1
