@<TRIPOS>MOLECULE
*****
 29 33 0 0 0
SMALL
GASTEIGER

@<TRIPOS>ATOM
      1 C          62.1740   89.8839   10.9870 C.ar    1  UNL1        0.1052
      2 C          60.8029   90.4574   10.7844 C.ar    1  UNL1        0.1199
      3 N          59.7977   89.7210    9.9492 N.ar    1  UNL1       -0.2194
      4 C          60.1639   88.4112    9.3167 C.ar    1  UNL1        0.2212
      5 N          59.3893   87.4647    8.4481 N.ar    1  UNL1       -0.1076
      6 N          60.2817   86.3063    8.1139 N.ar    1  UNL1       -0.0607
      7 N          61.6079   86.5368    8.7759 N.ar    1  UNL1       -0.2090
      8 C          61.5350   87.8377    9.5192 C.ar    1  UNL1        0.1994
      9 N          62.5401   88.5740   10.3544 N.ar    1  UNL1       -0.2225
     10 N          64.9869   92.0946   12.4923 N.ar    1  UNL1       -0.2468
     11 C          64.1924   91.6048   11.3180 C.ar    1  UNL1        0.0983
     12 C          63.1790   90.6204   11.8221 C.ar    1  UNL1        0.0588
     13 C          63.3472   90.5018   13.3079 C.ar    1  UNL1        0.1232
     14 N          64.4645   91.4129   13.7222 N.ar    1  UNL1       -0.1675
     15 C          66.1070   93.0912   12.4451 C.3     1  UNL1        0.1591
     16 O          66.0055   93.3743   15.0257 O.3     1  UNL1       -0.3799
     17 C          66.5044   93.8321   13.6873 C.3     1  UNL1        0.1635
     18 H          66.3534   93.9584   15.7176 H       1  UNL1        0.2105
     19 C          62.7979   85.6263    8.7068 C.3     1  UNL1        0.1572
     20 C          63.1082   84.7092    9.8525 C.ar    1  UNL1        0.0023
     21 C          63.9363   83.4792    9.6256 C.ar    1  UNL1       -0.0008
     22 C          64.2465   82.5621   10.7713 C.ar    1  UNL1        0.0188
     23 C          63.7286   82.8749   12.1439 C.ar    1  UNL1        0.0813
     24 N          64.0389   81.9577   13.2896 N.ar    1  UNL1       -0.2438
     25 C          63.5210   82.2706   14.6621 C.ar    1  UNL1        0.0988
     26 C          62.6929   83.5005   14.8890 C.ar    1  UNL1        0.0207
     27 C          62.3827   84.4176   13.7433 C.ar    1  UNL1        0.0031
     28 C          62.9005   84.1048   12.3708 C.ar    1  UNL1        0.0174
     29 C          62.5903   85.0220   11.2251 C.ar    1  UNL1       -0.0008
@<TRIPOS>BOND
     1    16    17    1
     2    17    15    1
     3    15    10    1
     4    10    11   ar
     5    11    12   ar
     6    12     1    1
     7     1     2   ar
     8     2     3   ar
     9     3     4   ar
    10     4     5   ar
    11     5     6   ar
    12     6     7   ar
    13     7    19    1
    14    19    20    1
    15    20    21   ar
    16    21    22   ar
    17    22    23   ar
    18    23    24   ar
    19    24    25   ar
    20    25    26   ar
    21    26    27   ar
    22    27    28   ar
    23    28    29   ar
    24     7     8   ar
    25     8     9   ar
    26    12    13   ar
    27    13    14   ar
    28    14    10   ar
    29     9     1   ar
    30     8     4   ar
    31    29    20   ar
    32    28    23   ar
    33    16    18    1
@<TRIPOS>MOLECULE
*****
 29 33 0 0 0
SMALL
GASTEIGER

@<TRIPOS>ATOM
      1 C          62.8901   90.2754   11.5179 C.ar    1  UNL1        0.1052
      2 C          63.8504   91.2185   10.8558 C.ar    1  UNL1        0.1199
      3 N          64.8251   92.0012   11.6850 N.ar    1  UNL1       -0.2194
      4 C          64.8393   91.8407   13.1763 C.ar    1  UNL1        0.2212
      5 N          65.6791   92.4737   14.2458 N.ar    1  UNL1       -0.1076
      6 N          65.2378   91.9219   15.5691 N.ar    1  UNL1       -0.0607
      7 N          64.1253   90.9478   15.3172 N.ar    1  UNL1       -0.2090
      8 C          63.8790   90.8976   13.8384 C.ar    1  UNL1        0.1994
      9 N          62.9044   90.1150   13.0092 N.ar    1  UNL1       -0.2225
     10 N          60.8686   87.6913    9.4440 N.ar    1  UNL1       -0.2468
     11 C          62.0752   88.0666   10.2522 C.ar    1  UNL1        0.0983
     12 C          61.9155   89.4928   10.6886 C.ar    1  UNL1        0.0588
     13 C          60.6101   89.9990   10.1503 C.ar    1  UNL1        0.1232
     14 N          59.9630   88.8856    9.3810 N.ar    1  UNL1       -0.1675
     15 C          60.6123   86.3562    8.8101 C.3     1  UNL1        0.1591
     16 O          58.2458   86.6848    7.7897 O.3     1  UNL1       -0.3799
     17 C          59.6731   86.2467    7.6457 C.3     1  UNL1        0.1635
     18 H          57.7793   86.5479    6.9503 H       1  UNL1        0.2105
     19 C          63.3884   90.1618   16.3609 C.3     1  UNL1        0.1572
     20 C          63.4044   88.6624   16.3210 C.ar    1  UNL1        0.0023
     21 C          62.7464   87.8760   17.4158 C.ar    1  UNL1       -0.0008
     22 C          62.7624   86.3766   17.3759 C.ar    1  UNL1        0.0188
     23 C          63.4364   85.6636   16.2412 C.ar    1  UNL1        0.0813
     24 N          63.4523   84.1643   16.2013 N.ar    1  UNL1       -0.2438
     25 C          64.1263   83.4514   15.0667 C.ar    1  UNL1        0.0988
     26 C          64.7842   84.2378   13.9719 C.ar    1  UNL1        0.0207
     27 C          64.7683   85.7372   14.0117 C.ar    1  UNL1        0.0031
     28 C          64.0943   86.4501   15.1464 C.ar    1  UNL1        0.0174
     29 C          64.0783   87.9495   15.1863 C.ar    1  UNL1       -0.0008
@<TRIPOS>BOND
     1    16    17    1
     2    17    15    1
     3    15    10    1
     4    10    11   ar
     5    11    12   ar
     6    12     1    1
     7     1     2   ar
     8     2     3   ar
     9     3     4   ar
    10     4     5   ar
    11     5     6   ar
    12     6     7   ar
    13     7    19    1
    14    19    20    1
    15    20    21   ar
    16    21    22   ar
    17    22    23   ar
    18    23    24   ar
    19    24    25   ar
    20    25    26   ar
    21    26    27   ar
    22    27    28   ar
    23    28    29   ar
    24     7     8   ar
    25     8     9   ar
    26    12    13   ar
    27    13    14   ar
    28    14    10   ar
    29     9     1   ar
    30     8     4   ar
    31    29    20   ar
    32    28    23   ar
    33    16    18    1
@<TRIPOS>MOLECULE
*****
 29 33 0 0 0
SMALL
GASTEIGER

@<TRIPOS>ATOM
      1 C          63.4348   86.2719   15.6286 C.ar    1  UNL1        0.1052
      2 C          63.0780   86.5290   17.0627 C.ar    1  UNL1        0.1199
      3 N          63.0041   87.9364   17.5765 N.ar    1  UNL1       -0.2194
      4 C          63.2870   89.0865   16.6561 C.ar    1  UNL1        0.2212
      5 N          63.2914   90.5703   16.8761 N.ar    1  UNL1       -0.1076
      6 N          63.6510   91.2303   15.5779 N.ar    1  UNL1       -0.0607
      7 N          63.8687   90.1542   14.5556 N.ar    1  UNL1       -0.2090
      8 C          63.6437   88.8294   15.2220 C.ar    1  UNL1        0.1994
      9 N          63.7177   87.4221   14.7083 N.ar    1  UNL1       -0.2225
     10 N          62.9009   82.5960   14.5023 N.ar    1  UNL1       -0.2468
     11 C          62.3849   83.8710   15.1008 C.ar    1  UNL1        0.0983
     12 C          63.5087   84.8646   15.1149 C.ar    1  UNL1        0.0588
     13 C          64.7192   84.2036   14.5251 C.ar    1  UNL1        0.1232
     14 N          64.3436   82.8016   14.1465 N.ar    1  UNL1       -0.1675
     15 C          62.1127   81.3366   14.2958 C.3     1  UNL1        0.1591
     16 O          63.0315   81.0833   11.8789 O.3     1  UNL1       -0.3799
     17 C          62.3522   80.4930   13.0789 C.3     1  UNL1        0.1635
     18 H          63.1074   80.4089   11.1859 H       1  UNL1        0.2105
     19 C          64.2453   90.3660   13.1192 C.3     1  UNL1        0.1572
     20 C          63.3026   89.9530   12.0279 C.ar    1  UNL1        0.0023
     21 C          62.6573   90.9930   11.1608 C.ar    1  UNL1       -0.0008
     22 C          61.7147   90.5800   10.0696 C.ar    1  UNL1        0.0188
     23 C          61.4172   89.1269    9.8455 C.ar    1  UNL1        0.0813
     24 N          60.4745   88.7140    8.7543 N.ar    1  UNL1       -0.2438
     25 C          60.1771   87.2609    8.5303 C.ar    1  UNL1        0.0988
     26 C          60.8224   86.2209    9.3974 C.ar    1  UNL1        0.0207
     27 C          61.7650   86.6339   10.4886 C.ar    1  UNL1        0.0031
     28 C          62.0625   88.0869   10.7127 C.ar    1  UNL1        0.0174
     29 C          63.0052   88.4999   11.8039 C.ar    1  UNL1       -0.0008
@<TRIPOS>BOND
     1    16    17    1
     2    17    15    1
     3    15    10    1
     4    10    11   ar
     5    11    12   ar
     6    12     1    1
     7     1     2   ar
     8     2     3   ar
     9     3     4   ar
    10     4     5   ar
    11     5     6   ar
    12     6     7   ar
    13     7    19    1
    14    19    20    1
    15    20    21   ar
    16    21    22   ar
    17    22    23   ar
    18    23    24   ar
    19    24    25   ar
    20    25    26   ar
    21    26    27   ar
    22    27    28   ar
    23    28    29   ar
    24     7     8   ar
    25     8     9   ar
    26    12    13   ar
    27    13    14   ar
    28    14    10   ar
    29     9     1   ar
    30     8     4   ar
    31    29    20   ar
    32    28    23   ar
    33    16    18    1
@<TRIPOS>MOLECULE
*****
 29 33 0 0 0
SMALL
GASTEIGER

@<TRIPOS>ATOM
      1 C          63.9732   88.8608   15.1294 C.ar    1  UNL1        0.1052
      2 C          63.2317   88.9951   16.4264 C.ar    1  UNL1        0.1199
      3 N          62.7162   87.7722   17.1257 N.ar    1  UNL1       -0.2194
      4 C          62.9423   86.4152   16.5280 C.ar    1  UNL1        0.2212
      5 N          62.5542   85.0401   16.9845 N.ar    1  UNL1       -0.1076
      6 N          63.0559   84.0559   15.9697 N.ar    1  UNL1       -0.0607
      7 N          63.7541   84.8229   14.8859 N.ar    1  UNL1       -0.2090
      8 C          63.6838   86.2809   15.2310 C.ar    1  UNL1        0.1994
      9 N          64.1993   87.5038   14.5317 N.ar    1  UNL1       -0.2225
     10 N          65.8643   91.9898   13.8263 N.ar    1  UNL1       -0.2468
     11 C          65.7340   90.8418   14.7829 C.ar    1  UNL1        0.0983
     12 C          64.4886   90.0837   14.4302 C.ar    1  UNL1        0.0588
     13 C          63.8493   90.7631   13.2557 C.ar    1  UNL1        0.1232
     14 N          64.6995   91.9412   12.8824 N.ar    1  UNL1       -0.1675
     15 C          66.9660   93.0078   13.8154 C.3     1  UNL1        0.1591
     16 O          69.4321   92.3065   14.2351 O.3     1  UNL1       -0.3799
     17 C          68.1340   92.8588   14.7447 C.3     1  UNL1        0.1635
     18 H          70.0773   92.2769   14.9589 H       1  UNL1        0.2105
     19 C          64.4077   84.2349   13.6706 C.3     1  UNL1        0.1572
     20 C          63.8146   84.4690   12.3128 C.ar    1  UNL1        0.0023
     21 C          64.3262   83.7032   11.1288 C.ar    1  UNL1       -0.0008
     22 C          63.7332   83.9372    9.7710 C.ar    1  UNL1        0.0188
     23 C          62.6285   84.9370    9.5972 C.ar    1  UNL1        0.0813
     24 N          62.0354   85.1710    8.2395 N.ar    1  UNL1       -0.2438
     25 C          60.9308   86.1707    8.0657 C.ar    1  UNL1        0.0988
     26 C          60.4192   86.9365    9.2497 C.ar    1  UNL1        0.0207
     27 C          61.0122   86.7025   10.6074 C.ar    1  UNL1        0.0031
     28 C          62.1169   85.7027   10.7812 C.ar    1  UNL1        0.0174
     29 C          62.7099   85.4687   12.1390 C.ar    1  UNL1       -0.0008
@<TRIPOS>BOND
     1    16    17    1
     2    17    15    1
     3    15    10    1
     4    10    11   ar
     5    11    12   ar
     6    12     1    1
     7     1     2   ar
     8     2     3   ar
     9     3     4   ar
    10     4     5   ar
    11     5     6   ar
    12     6     7   ar
    13     7    19    1
    14    19    20    1
    15    20    21   ar
    16    21    22   ar
    17    22    23   ar
    18    23    24   ar
    19    24    25   ar
    20    25    26   ar
    21    26    27   ar
    22    27    28   ar
    23    28    29   ar
    24     7     8   ar
    25     8     9   ar
    26    12    13   ar
    27    13    14   ar
    28    14    10   ar
    29     9     1   ar
    30     8     4   ar
    31    29    20   ar
    32    28    23   ar
    33    16    18    1
@<TRIPOS>MOLECULE
*****
 29 33 0 0 0
SMALL
GASTEIGER

@<TRIPOS>ATOM
      1 C          62.3153   85.3277   11.0802 C.ar    1  UNL1        0.1052
      2 C          63.0918   84.4162   10.1768 C.ar    1  UNL1        0.1199
      3 N          63.9084   83.3006   10.7589 N.ar    1  UNL1       -0.2194
      4 C          63.9485   83.0967   12.2443 C.ar    1  UNL1        0.2212
      5 N          64.6588   82.0905   13.1005 N.ar    1  UNL1       -0.1076
      6 N          64.3213   82.3801   14.5331 N.ar    1  UNL1       -0.0607
      7 N          63.4024   83.5654   14.5623 N.ar    1  UNL1       -0.2090
      8 C          63.1720   84.0082   13.1478 C.ar    1  UNL1        0.1994
      9 N          62.3554   85.1237   12.5657 N.ar    1  UNL1       -0.2225
     10 N          60.4562   88.6093   10.1634 N.ar    1  UNL1       -0.2468
     11 C          61.3650   87.8261   11.0638 C.ar    1  UNL1        0.0983
     12 C          61.4988   86.4432   10.4981 C.ar    1  UNL1        0.0588
     13 C          60.6726   86.3718    9.2481 C.ar    1  UNL1        0.1232
     14 N          60.0283   87.7105    9.0412 N.ar    1  UNL1       -0.1675
     15 C          60.0471   90.0400   10.3520 C.3     1  UNL1        0.1591
     16 O          58.5730   91.7289   11.6651 O.3     1  UNL1       -0.3799
     17 C          59.3862   90.4691   11.6283 C.3     1  UNL1        0.1635
     18 H          58.2186   91.8591   12.5586 H       1  UNL1        0.2105
     19 C          62.8168   84.1969   15.7904 C.3     1  UNL1        0.1572
     20 C          62.9765   85.6698   16.0252 C.ar    1  UNL1        0.0023
     21 C          62.4702   86.2860   17.2956 C.ar    1  UNL1       -0.0008
     22 C          62.6299   87.7588   17.5305 C.ar    1  UNL1        0.0188
     23 C          63.2959   88.6156   16.4949 C.ar    1  UNL1        0.0813
     24 N          63.4556   90.0884   16.7297 N.ar    1  UNL1       -0.2438
     25 C          64.1217   90.9451   15.6941 C.ar    1  UNL1        0.0988
     26 C          64.6280   90.3289   14.4237 C.ar    1  UNL1        0.0207
     27 C          64.4683   88.8561   14.1889 C.ar    1  UNL1        0.0031
     28 C          63.8023   87.9994   15.2244 C.ar    1  UNL1        0.0174
     29 C          63.6425   86.5265   14.9896 C.ar    1  UNL1       -0.0008
@<TRIPOS>BOND
     1    16    17    1
     2    17    15    1
     3    15    10    1
     4    10    11   ar
     5    11    12   ar
     6    12     1    1
     7     1     2   ar
     8     2     3   ar
     9     3     4   ar
    10     4     5   ar
    11     5     6   ar
    12     6     7   ar
    13     7    19    1
    14    19    20    1
    15    20    21   ar
    16    21    22   ar
    17    22    23   ar
    18    23    24   ar
    19    24    25   ar
    20    25    26   ar
    21    26    27   ar
    22    27    28   ar
    23    28    29   ar
    24     7     8   ar
    25     8     9   ar
    26    12    13   ar
    27    13    14   ar
    28    14    10   ar
    29     9     1   ar
    30     8     4   ar
    31    29    20   ar
    32    28    23   ar
    33    16    18    1
@<TRIPOS>MOLECULE
*****
 29 33 0 0 0
SMALL
GASTEIGER

@<TRIPOS>ATOM
      1 C          63.5836   87.4752   15.5301 C.ar    1  UNL1        0.1052
      2 C          63.3091   86.7957   16.8389 C.ar    1  UNL1        0.1199
      3 N          62.9952   85.3292   16.8712 N.ar    1  UNL1       -0.2194
      4 C          62.9558   84.5424   15.5948 C.ar    1  UNL1        0.2212
      5 N          62.6770   83.0951   15.3161 N.ar    1  UNL1       -0.1076
      6 N          62.7792   82.8802   13.8351 N.ar    1  UNL1       -0.0607
      7 N          63.1211   84.1947   13.1985 N.ar    1  UNL1       -0.2090
      8 C          63.2303   85.2219   14.2860 C.ar    1  UNL1        0.1994
      9 N          63.5441   86.6884   14.2537 N.ar    1  UNL1       -0.2225
     10 N          64.8610   91.0830   14.8838 N.ar    1  UNL1       -0.2468
     11 C          64.8593   89.6171   14.5658 C.ar    1  UNL1        0.0983
     12 C          63.8974   88.9416   15.4978 C.ar    1  UNL1        0.0588
     13 C          63.3046   89.9901   16.3918 C.ar    1  UNL1        0.1232
     14 N          63.9000   91.3136   16.0123 N.ar    1  UNL1       -0.1675
     15 C          65.6797   92.1338   14.1943 C.3     1  UNL1        0.1591
     16 O          66.4069   93.0823   16.5011 O.3     1  UNL1       -0.3799
     17 C          66.4291   93.1510   15.0029 C.3     1  UNL1        0.1635
     18 H          66.9376   93.8077   16.8659 H       1  UNL1        0.2105
     19 C          63.3191   84.4390   11.7318 C.3     1  UNL1        0.1572
     20 C          62.5852   85.5566   11.0518 C.ar    1  UNL1        0.0023
     21 C          62.7359   86.9641   11.5481 C.ar    1  UNL1       -0.0008
     22 C          62.0020   88.0817   10.8682 C.ar    1  UNL1        0.0188
     23 C          61.1174   87.7919    9.6919 C.ar    1  UNL1        0.0813
     24 N          60.3835   88.9095    9.0120 N.ar    1  UNL1       -0.2438
     25 C          59.4989   88.6196    7.8359 C.ar    1  UNL1        0.0988
     26 C          59.3481   87.2121    7.3396 C.ar    1  UNL1        0.0207
     27 C          60.0820   86.0945    8.0195 C.ar    1  UNL1        0.0031
     28 C          60.9666   86.3844    9.1957 C.ar    1  UNL1        0.0174
     29 C          61.7006   85.2667    9.8756 C.ar    1  UNL1       -0.0008
@<TRIPOS>BOND
     1    16    17    1
     2    17    15    1
     3    15    10    1
     4    10    11   ar
     5    11    12   ar
     6    12     1    1
     7     1     2   ar
     8     2     3   ar
     9     3     4   ar
    10     4     5   ar
    11     5     6   ar
    12     6     7   ar
    13     7    19    1
    14    19    20    1
    15    20    21   ar
    16    21    22   ar
    17    22    23   ar
    18    23    24   ar
    19    24    25   ar
    20    25    26   ar
    21    26    27   ar
    22    27    28   ar
    23    28    29   ar
    24     7     8   ar
    25     8     9   ar
    26    12    13   ar
    27    13    14   ar
    28    14    10   ar
    29     9     1   ar
    30     8     4   ar
    31    29    20   ar
    32    28    23   ar
    33    16    18    1
@<TRIPOS>MOLECULE
*****
 29 33 0 0 0
SMALL
GASTEIGER

@<TRIPOS>ATOM
      1 C          62.4403   89.5756   10.7174 C.ar    1  UNL1        0.1052
      2 C          63.0422   90.8839   10.2977 C.ar    1  UNL1        0.1199
      3 N          64.0014   91.5940   11.2065 N.ar    1  UNL1       -0.2194
      4 C          64.3587   90.9958   12.5347 C.ar    1  UNL1        0.2212
      5 N          65.2676   91.4615   13.6334 N.ar    1  UNL1       -0.1076
      6 N          65.2275   90.4410   14.7320 N.ar    1  UNL1       -0.0607
      7 N          64.2938   89.3445   14.3123 N.ar    1  UNL1       -0.2090
      8 C          63.7569   89.6874   12.9543 C.ar    1  UNL1        0.1994
      9 N          62.7977   88.9773   12.0457 N.ar    1  UNL1       -0.2225
     10 N          60.4483   87.1677    8.4154 N.ar    1  UNL1       -0.2468
     11 C          61.6344   87.4690    9.2828 C.ar    1  UNL1        0.0983
     12 C          61.4812   88.8655    9.8086 C.ar    1  UNL1        0.0588
     13 C          60.2005   89.4273    9.2661 C.ar    1  UNL1        0.1232
     14 N          59.5621   88.3779    8.4050 N.ar    1  UNL1       -0.1675
     15 C          60.1932   85.8819    7.6862 C.3     1  UNL1        0.1591
     16 O          61.0565   84.1636    5.9393 O.3     1  UNL1       -0.3799
     17 C          61.3296   85.1507    7.0351 C.3     1  UNL1        0.1635
     18 H          61.8938   83.7835    5.6304 H       1  UNL1        0.2105
     19 C          63.9563   88.1202   15.1105 C.3     1  UNL1        0.1572
     20 C          64.1232   86.7590   14.5026 C.ar    1  UNL1        0.0023
     21 C          65.1336   85.8046   15.0665 C.ar    1  UNL1       -0.0008
     22 C          65.3006   84.4435   14.4587 C.ar    1  UNL1        0.0188
     23 C          64.4570   84.0367   13.2869 C.ar    1  UNL1        0.0813
     24 N          64.6240   82.6757   12.6791 N.ar    1  UNL1       -0.2438
     25 C          63.7805   82.2690   11.5073 C.ar    1  UNL1        0.0988
     26 C          62.7700   83.2235   10.9433 C.ar    1  UNL1        0.0207
     27 C          62.6031   84.5846   11.5512 C.ar    1  UNL1        0.0031
     28 C          63.4466   84.9912   12.7229 C.ar    1  UNL1        0.0174
     29 C          63.2797   86.3524   13.3308 C.ar    1  UNL1       -0.0008
@<TRIPOS>BOND
     1    16    17    1
     2    17    15    1
     3    15    10    1
     4    10    11   ar
     5    11    12   ar
     6    12     1    1
     7     1     2   ar
     8     2     3   ar
     9     3     4   ar
    10     4     5   ar
    11     5     6   ar
    12     6     7   ar
    13     7    19    1
    14    19    20    1
    15    20    21   ar
    16    21    22   ar
    17    22    23   ar
    18    23    24   ar
    19    24    25   ar
    20    25    26   ar
    21    26    27   ar
    22    27    28   ar
    23    28    29   ar
    24     7     8   ar
    25     8     9   ar
    26    12    13   ar
    27    13    14   ar
    28    14    10   ar
    29     9     1   ar
    30     8     4   ar
    31    29    20   ar
    32    28    23   ar
    33    16    18    1
@<TRIPOS>MOLECULE
*****
 29 33 0 0 0
SMALL
GASTEIGER

@<TRIPOS>ATOM
      1 C          59.6019   89.0043    7.1873 C.ar    1  UNL1        0.1052
      2 C          59.5928   87.5507    6.8174 C.ar    1  UNL1        0.1199
      3 N          60.0085   86.5181    7.8230 N.ar    1  UNL1       -0.2194
      4 C          60.4334   86.9393    9.1984 C.ar    1  UNL1        0.2212
      5 N          60.8922   86.1545   10.3915 N.ar    1  UNL1       -0.1076
      6 N          61.1850   87.1230   11.4989 N.ar    1  UNL1       -0.0607
      7 N          60.9071   88.5065   10.9901 N.ar    1  UNL1       -0.2090
      8 C          60.4426   88.3930    9.5684 C.ar    1  UNL1        0.1994
      9 N          60.0269   89.4255    8.5629 N.ar    1  UNL1       -0.2225
     10 N          59.2655   91.7390    4.4536 N.ar    1  UNL1       -0.2468
     11 C          60.1052   90.8272    5.2983 C.ar    1  UNL1        0.0983
     12 C          59.1862   90.0367    6.1818 C.ar    1  UNL1        0.0588
     13 C          57.7784   90.4599    5.8831 C.ar    1  UNL1        0.1232
     14 N          57.8274   91.5120    4.8150 N.ar    1  UNL1       -0.1675
     15 C          59.7744   92.7077    3.4276 C.3     1  UNL1        0.1591
     16 O          61.4090   92.6490    1.4090 O.3     1  UNL1       -0.3799
     17 C          61.1662   92.5651    2.8869 C.3     1  UNL1        0.1635
     18 H          62.3557   92.5372    1.2300 H       1  UNL1        0.2105
     19 C          61.0658   89.7800   11.7668 C.3     1  UNL1        0.1572
     20 C          62.4114   90.4356   11.8654 C.ar    1  UNL1        0.0023
     21 C          62.9665   91.1884   10.6928 C.ar    1  UNL1       -0.0008
     22 C          64.3120   91.8440   10.7913 C.ar    1  UNL1        0.0188
     23 C          65.1025   91.7468   12.0625 C.ar    1  UNL1        0.0813
     24 N          66.4480   92.4024   12.1610 N.ar    1  UNL1       -0.2438
     25 C          67.2383   92.3051   13.4322 C.ar    1  UNL1        0.0988
     26 C          66.6832   91.5522   14.6048 C.ar    1  UNL1        0.0207
     27 C          65.3377   90.8967   14.5062 C.ar    1  UNL1        0.0031
     28 C          64.5473   90.9939   13.2351 C.ar    1  UNL1        0.0174
     29 C          63.2017   90.3383   13.1365 C.ar    1  UNL1       -0.0008
@<TRIPOS>BOND
     1    16    17    1
     2    17    15    1
     3    15    10    1
     4    10    11   ar
     5    11    12   ar
     6    12     1    1
     7     1     2   ar
     8     2     3   ar
     9     3     4   ar
    10     4     5   ar
    11     5     6   ar
    12     6     7   ar
    13     7    19    1
    14    19    20    1
    15    20    21   ar
    16    21    22   ar
    17    22    23   ar
    18    23    24   ar
    19    24    25   ar
    20    25    26   ar
    21    26    27   ar
    22    27    28   ar
    23    28    29   ar
    24     7     8   ar
    25     8     9   ar
    26    12    13   ar
    27    13    14   ar
    28    14    10   ar
    29     9     1   ar
    30     8     4   ar
    31    29    20   ar
    32    28    23   ar
    33    16    18    1
@<TRIPOS>MOLECULE
*****
 29 33 0 0 0
SMALL
GASTEIGER

@<TRIPOS>ATOM
      1 C          62.8165   85.2426   11.0493 C.ar    1  UNL1        0.1052
      2 C          63.5111   83.9147   11.1146 C.ar    1  UNL1        0.1199
      3 N          64.3005   83.5404   12.3340 N.ar    1  UNL1       -0.2194
      4 C          64.3951   84.4939   13.4880 C.ar    1  UNL1        0.2212
      5 N          65.0952   84.4017   14.8114 N.ar    1  UNL1       -0.1076
      6 N          64.8332   85.6725   15.5640 N.ar    1  UNL1       -0.0607
      7 N          63.9712   86.5502   14.7056 N.ar    1  UNL1       -0.2090
      8 C          63.7005   85.8218   13.4226 C.ar    1  UNL1        0.1994
      9 N          62.9111   86.1961   12.2033 N.ar    1  UNL1       -0.2225
     10 N          60.3104   86.5439    8.3862 N.ar    1  UNL1       -0.2468
     11 C          60.7509   86.4049    9.8134 C.ar    1  UNL1        0.0983
     12 C          62.0272   85.6168    9.8299 C.ar    1  UNL1        0.0588
     13 C          62.3754   85.2686    8.4130 C.ar    1  UNL1        0.1232
     14 N          61.3144   85.8416    7.5207 N.ar    1  UNL1       -0.1675
     15 C          59.0818   87.2594    7.9084 C.3     1  UNL1        0.1591
     16 O          60.1124   89.6405    8.0426 O.3     1  UNL1       -0.3799
     17 C          59.1862   88.6611    7.3847 C.3     1  UNL1        0.1635
     18 H          60.0596   90.4937    7.5842 H       1  UNL1        0.2105
     19 C          63.4683   87.9165   15.0669 C.3     1  UNL1        0.1572
     20 C          63.9117   89.1120   14.2769 C.ar    1  UNL1        0.0023
     21 C          63.3216   89.3778   12.9237 C.ar    1  UNL1       -0.0008
     22 C          63.7650   90.5733   12.1337 C.ar    1  UNL1        0.0188
     23 C          64.7986   91.5031   12.6969 C.ar    1  UNL1        0.0813
     24 N          65.2420   92.6986   11.9070 N.ar    1  UNL1       -0.2438
     25 C          66.2756   93.6284   12.4702 C.ar    1  UNL1        0.0988
     26 C          66.8658   93.3626   13.8233 C.ar    1  UNL1        0.0207
     27 C          66.4224   92.1671   14.6133 C.ar    1  UNL1        0.0031
     28 C          65.3888   91.2374   14.0501 C.ar    1  UNL1        0.0174
     29 C          64.9453   90.0418   14.8401 C.ar    1  UNL1       -0.0008
@<TRIPOS>BOND
     1    16    17    1
     2    17    15    1
     3    15    10    1
     4    10    11   ar
     5    11    12   ar
     6    12     1    1
     7     1     2   ar
     8     2     3   ar
     9     3     4   ar
    10     4     5   ar
    11     5     6   ar
    12     6     7   ar
    13     7    19    1
    14    19    20    1
    15    20    21   ar
    16    21    22   ar
    17    22    23   ar
    18    23    24   ar
    19    24    25   ar
    20    25    26   ar
    21    26    27   ar
    22    27    28   ar
    23    28    29   ar
    24     7     8   ar
    25     8     9   ar
    26    12    13   ar
    27    13    14   ar
    28    14    10   ar
    29     9     1   ar
    30     8     4   ar
    31    29    20   ar
    32    28    23   ar
    33    16    18    1
