@<TRIPOS>MOLECULE
*****
 29 31 0 0 0
SMALL
GASTEIGER

@<TRIPOS>ATOM
      1 C          64.5481   90.3383   14.6114 C.ar    1  UNL1        0.0050
      2 C          63.8792   90.9425   15.8103 C.ar    1  UNL1       -0.0001
      3 C          63.2466   90.0566   16.8421 C.ar    1  UNL1       -0.0030
      4 C          63.2827   88.5663   16.6750 C.ar    1  UNL1       -0.0088
      5 C          63.9516   87.9621   15.4761 C.ar    1  UNL1        0.0438
      6 C          64.5843   88.8481   14.4443 C.ar    1  UNL1        0.0143
      7 N          63.9878   86.4719   15.3090 N.pl3   1  UNL1       -0.3076
      8 C          63.3551   85.5859   16.3408 C.3     1  UNL1        0.0911
      9 C          62.6862   86.1901   17.5398 C.3     1  UNL1        0.0261
     10 C          62.6500   87.6803   17.7069 C.3     1  UNL1        0.0294
     11 C          66.5601   91.7696   13.8032 C.ar    1  UNL1        0.0645
     12 N          67.1929   92.6555   12.7714 N.ar    1  UNL1       -0.2183
     13 C          66.4463   92.9962   11.5157 C.ar    1  UNL1        0.2145
     14 N          67.0790   93.8822   10.4839 N.pl3   1  UNL1       -0.3274
     15 N          65.0669   92.4509   11.2920 N.ar    1  UNL1       -0.1995
     16 C          64.4342   91.5649   12.3239 C.ar    1  UNL1        0.1293
     17 N          63.0549   91.0196   12.1001 N.pl3   1  UNL1       -0.3425
     18 C          65.1808   91.2243   13.5795 C.ar    1  UNL1        0.0449
     19 H          67.9843   94.2401   10.6308 H       1  UNL1        0.1452
     20 H          66.5890   94.1057    9.6598 H       1  UNL1        0.1452
     21 H          62.5649   91.2431   11.2760 H       1  UNL1        0.1437
     22 H          62.6396   90.4381   12.7774 H       1  UNL1        0.1437
     23 C          67.6656   92.5101   16.0348 C.3     1  UNL1        0.0067
     24 C          67.3068   91.4289   15.0589 C.3     1  UNL1        0.0460
     25 C          64.6566   85.8676   14.1101 C.3     1  UNL1        0.0933
     26 C          64.3028   84.4762   13.6756 C.3     1  UNL1        0.0535
     27 C          63.0602   84.2349   12.8707 C.3     1  UNL1        0.1440
     28 O          62.1043   85.3613   12.6112 O.3     1  UNL1       -0.3510
     29 C          61.8372   85.8094   11.2049 C.3     1  UNL1        0.1741
@<TRIPOS>BOND
     1    23    24    1
     2    24    11    1
     3    11    12   ar
     4    12    13   ar
     5    13    14    1
     6    13    15   ar
     7    15    16   ar
     8    16    17    1
     9    16    18   ar
    10    18     1    1
    11     1     2   ar
    12     2     3   ar
    13     3     4   ar
    14     4     5   ar
    15     5     6   ar
    16     5     7    1
    17     7    25    1
    18    25    26    1
    19    26    27    1
    20    27    28    1
    21    28    29    1
    22     7     8    1
    23     8     9    1
    24     9    10    1
    25    18    11   ar
    26     6     1   ar
    27    10     4    1
    28    14    19    1
    29    14    20    1
    30    17    21    1
    31    17    22    1
@<TRIPOS>MOLECULE
*****
 29 31 0 0 0
SMALL
GASTEIGER

@<TRIPOS>ATOM
      1 C          64.5851   90.2743   14.5622 C.ar    1  UNL1        0.0050
      2 C          63.9170   90.9032   15.7488 C.ar    1  UNL1       -0.0001
      3 C          63.2679   90.0393   16.7892 C.ar    1  UNL1       -0.0030
      4 C          63.2870   88.5466   16.6430 C.ar    1  UNL1       -0.0088
      5 C          63.9551   87.9177   15.4564 C.ar    1  UNL1        0.0438
      6 C          64.6042   88.7815   14.4160 C.ar    1  UNL1        0.0143
      7 N          63.9742   86.4250   15.3102 N.pl3   1  UNL1       -0.3076
      8 C          63.3252   85.5611   16.3506 C.3     1  UNL1        0.0911
      9 C          62.6570   86.1900   17.5373 C.3     1  UNL1        0.0261
     10 C          62.6379   87.6828   17.6835 C.3     1  UNL1        0.0294
     11 C          64.4899   91.4892   12.2676 C.ar    1  UNL1        0.0645
     12 N          65.1389   92.3530   11.2272 N.ar    1  UNL1       -0.2183
     13 C          66.5323   92.8658   11.4408 C.ar    1  UNL1        0.2145
     14 N          67.1813   93.7295   10.4003 N.pl3   1  UNL1       -0.3274
     15 N          67.2766   92.5147   12.6948 N.ar    1  UNL1       -0.1995
     16 C          66.6275   91.6508   13.7353 C.ar    1  UNL1        0.1293
     17 N          67.3719   91.2997   14.9894 N.pl3   1  UNL1       -0.3425
     18 C          65.2342   91.1381   13.5217 C.ar    1  UNL1        0.0449
     19 H          66.6928   93.9600    9.5772 H       1  UNL1        0.1452
     20 H          68.0958   94.0661   10.5405 H       1  UNL1        0.1452
     21 H          68.2864   91.6363   15.1296 H       1  UNL1        0.1437
     22 H          66.9459   90.7328   15.6723 H       1  UNL1        0.1437
     23 C          62.8716   89.7250   11.2581 C.3     1  UNL1        0.0067
     24 C          63.0964   90.9764   12.0540 C.3     1  UNL1        0.0460
     25 C          64.6424   85.7961   14.1236 C.3     1  UNL1        0.0933
     26 C          64.1003   84.5226   13.5452 C.3     1  UNL1        0.0535
     27 C          62.9461   84.5653   12.5881 C.3     1  UNL1        0.1440
     28 O          62.1975   85.8472   12.3725 O.3     1  UNL1       -0.3510
     29 C          61.4623   86.0791   11.0858 C.3     1  UNL1        0.1741
@<TRIPOS>BOND
     1    23    24    1
     2    24    11    1
     3    11    12   ar
     4    12    13   ar
     5    13    14    1
     6    13    15   ar
     7    15    16   ar
     8    16    17    1
     9    16    18   ar
    10    18     1    1
    11     1     2   ar
    12     2     3   ar
    13     3     4   ar
    14     4     5   ar
    15     5     6   ar
    16     5     7    1
    17     7    25    1
    18    25    26    1
    19    26    27    1
    20    27    28    1
    21    28    29    1
    22     7     8    1
    23     8     9    1
    24     9    10    1
    25    18    11   ar
    26     6     1   ar
    27    10     4    1
    28    14    19    1
    29    14    20    1
    30    17    21    1
    31    17    22    1
@<TRIPOS>MOLECULE
*****
 29 31 0 0 0
SMALL
GASTEIGER

@<TRIPOS>ATOM
      1 C          63.2479   90.1920   12.2698 C.ar    1  UNL1        0.0050
      2 C          62.4965   90.9368   11.2066 C.ar    1  UNL1       -0.0001
      3 C          61.6998   90.1829   10.1835 C.ar    1  UNL1       -0.0030
      4 C          61.6545   88.6841   10.2235 C.ar    1  UNL1       -0.0088
      5 C          62.4060   87.9393   11.2867 C.ar    1  UNL1        0.0438
      6 C          63.2027   88.6932   12.3098 C.ar    1  UNL1        0.0143
      7 N          62.3608   86.4405   11.3268 N.pl3   1  UNL1       -0.3076
      8 C          61.5641   85.6866   10.3036 C.3     1  UNL1        0.0911
      9 C          60.8126   86.4314    9.2404 C.3     1  UNL1        0.0261
     10 C          60.8578   87.9302    9.2003 C.3     1  UNL1        0.0294
     11 C          65.1023   91.9151   12.8548 C.ar    1  UNL1        0.0645
     12 N          65.8990   92.6690   13.8779 N.ar    1  UNL1       -0.2183
     13 C          65.6382   92.4537   15.3393 C.ar    1  UNL1        0.2145
     14 N          66.4349   93.2076   16.3624 N.pl3   1  UNL1       -0.3274
     15 N          64.5805   91.4845   15.7775 N.ar    1  UNL1       -0.1995
     16 C          63.7838   90.7305   14.7543 C.ar    1  UNL1        0.1293
     17 N          62.7262   89.7613   15.1925 N.pl3   1  UNL1       -0.3425
     18 C          64.0447   90.9459   13.2930 C.ar    1  UNL1        0.0449
     19 H          67.1290   93.8437   16.0748 H       1  UNL1        0.1452
     20 H          66.2637   93.0663   17.3216 H       1  UNL1        0.1452
     21 H          62.5550   89.6200   16.1517 H       1  UNL1        0.1437
     22 H          62.2033   89.2665   14.5210 H       1  UNL1        0.1437
     23 C          65.6080   93.5152   10.8713 C.3     1  UNL1        0.0067
     24 C          65.3632   92.1304   11.3934 C.3     1  UNL1        0.0460
     25 C          63.1122   85.6956   12.3900 C.3     1  UNL1        0.0933
     26 C          62.9416   84.2119   12.5292 C.3     1  UNL1        0.0535
     27 C          64.1457   83.3285   12.6706 C.3     1  UNL1        0.1440
     28 O          64.7499   82.6845   11.4581 O.3     1  UNL1       -0.3510
     29 C          64.1588   82.9352   10.1025 C.3     1  UNL1        0.1741
@<TRIPOS>BOND
     1    23    24    1
     2    24    11    1
     3    11    12   ar
     4    12    13   ar
     5    13    14    1
     6    13    15   ar
     7    15    16   ar
     8    16    17    1
     9    16    18   ar
    10    18     1    1
    11     1     2   ar
    12     2     3   ar
    13     3     4   ar
    14     4     5   ar
    15     5     6   ar
    16     5     7    1
    17     7    25    1
    18    25    26    1
    19    26    27    1
    20    27    28    1
    21    28    29    1
    22     7     8    1
    23     8     9    1
    24     9    10    1
    25    18    11   ar
    26     6     1   ar
    27    10     4    1
    28    14    19    1
    29    14    20    1
    30    17    21    1
    31    17    22    1
@<TRIPOS>MOLECULE
*****
 29 31 0 0 0
SMALL
GASTEIGER

@<TRIPOS>ATOM
      1 C          63.4271   90.2450   12.2786 C.ar    1  UNL1        0.0050
      2 C          62.7070   90.9657   11.1778 C.ar    1  UNL1       -0.0001
      3 C          61.8945   90.1930   10.1814 C.ar    1  UNL1       -0.0030
      4 C          61.8023   88.6995   10.2859 C.ar    1  UNL1       -0.0088
      5 C          62.5224   87.9787   11.3867 C.ar    1  UNL1        0.0438
      6 C          63.3349   88.7515   12.3830 C.ar    1  UNL1        0.0143
      7 N          62.4302   86.4852   11.4911 N.pl3   1  UNL1       -0.3076
      8 C          61.6178   85.7125   10.4948 C.3     1  UNL1        0.0911
      9 C          60.8975   86.4332    9.3939 C.3     1  UNL1        0.0261
     10 C          60.9898   87.9267    9.2894 C.3     1  UNL1        0.0294
     11 C          64.0431   90.7861   14.7439 C.ar    1  UNL1        0.0645
     12 N          64.8555   91.5588   15.7403 N.ar    1  UNL1       -0.2183
     13 C          65.8645   92.5632   15.2678 C.ar    1  UNL1        0.2145
     14 N          66.6769   93.3359   16.2642 N.pl3   1  UNL1       -0.3274
     15 N          66.0610   92.7949   13.7989 N.ar    1  UNL1       -0.1995
     16 C          65.2485   92.0221   12.8025 C.ar    1  UNL1        0.1293
     17 N          65.4450   92.2538   11.3335 N.pl3   1  UNL1       -0.3425
     18 C          64.2396   91.0178   13.2750 C.ar    1  UNL1        0.0449
     19 H          66.5480   93.1839   17.2283 H       1  UNL1        0.1452
     20 H          67.3391   93.9951   15.9541 H       1  UNL1        0.1452
     21 H          66.1072   92.9130   11.0234 H       1  UNL1        0.1437
     22 H          64.9118   91.7466   10.6796 H       1  UNL1        0.1437
     23 C          63.1380   89.2073   16.5982 C.3     1  UNL1        0.0067
     24 C          63.0341   89.7817   15.2164 C.3     1  UNL1        0.0460
     25 C          63.1504   85.7645   12.5919 C.3     1  UNL1        0.0933
     26 C          62.8585   84.3173   12.8573 C.3     1  UNL1        0.0535
     27 C          62.6313   83.8433   14.2623 C.3     1  UNL1        0.1440
     28 O          61.8633   84.6975   15.2269 O.3     1  UNL1       -0.3510
     29 C          62.5517   85.2799   16.4256 C.3     1  UNL1        0.1741
@<TRIPOS>BOND
     1    23    24    1
     2    24    11    1
     3    11    12   ar
     4    12    13   ar
     5    13    14    1
     6    13    15   ar
     7    15    16   ar
     8    16    17    1
     9    16    18   ar
    10    18     1    1
    11     1     2   ar
    12     2     3   ar
    13     3     4   ar
    14     4     5   ar
    15     5     6   ar
    16     5     7    1
    17     7    25    1
    18    25    26    1
    19    26    27    1
    20    27    28    1
    21    28    29    1
    22     7     8    1
    23     8     9    1
    24     9    10    1
    25    18    11   ar
    26     6     1   ar
    27    10     4    1
    28    14    19    1
    29    14    20    1
    30    17    21    1
    31    17    22    1
@<TRIPOS>MOLECULE
*****
 29 31 0 0 0
SMALL
GASTEIGER

@<TRIPOS>ATOM
      1 C          63.1542   85.7097   12.9047 C.ar    1  UNL1        0.0050
      2 C          63.9139   86.6588   13.7833 C.ar    1  UNL1       -0.0001
      3 C          63.9373   88.1236   13.4611 C.ar    1  UNL1       -0.0030
      4 C          63.2010   88.6392   12.2603 C.ar    1  UNL1       -0.0088
      5 C          62.4413   87.6901   11.3817 C.ar    1  UNL1        0.0438
      6 C          62.4179   86.2253   11.7039 C.ar    1  UNL1        0.0143
      7 N          61.7050   88.2057   10.1809 N.pl3   1  UNL1       -0.3076
      8 C          61.7283   89.6705    9.8587 C.3     1  UNL1        0.0911
      9 C          62.4881   90.6197   10.7373 C.3     1  UNL1        0.0261
     10 C          63.2244   90.1041   11.9381 C.3     1  UNL1        0.0294
     11 C          63.8026   83.2647   12.3114 C.ar    1  UNL1        0.0645
     12 N          63.7792   81.7999   12.6335 N.ar    1  UNL1       -0.2183
     13 C          63.0840   81.3152   13.8712 C.ar    1  UNL1        0.2145
     14 N          63.0607   79.8504   14.1934 N.pl3   1  UNL1       -0.3274
     15 N          62.4123   82.2953   14.7868 N.ar    1  UNL1       -0.1995
     16 C          62.4357   83.7601   14.4646 C.ar    1  UNL1        0.1293
     17 N          61.7640   84.7402   15.3801 N.pl3   1  UNL1       -0.3425
     18 C          63.1308   84.2448   13.2269 C.ar    1  UNL1        0.0449
     19 H          63.5015   79.2071   13.5925 H       1  UNL1        0.1452
     20 H          62.6044   79.5322   15.0057 H       1  UNL1        0.1452
     21 H          61.3078   84.4221   16.1924 H       1  UNL1        0.1437
     22 H          61.7794   85.7016   15.1687 H       1  UNL1        0.1437
     23 C          63.9138   83.4588    9.7229 C.3     1  UNL1        0.0067
     24 C          64.4977   83.7495   11.0737 C.3     1  UNL1        0.0460
     25 C          60.9453   87.2566    9.3023 C.3     1  UNL1        0.0933
     26 C          59.5473   87.5888    8.8717 C.3     1  UNL1        0.0535
     27 C          59.2826   88.0384    7.4653 C.3     1  UNL1        0.1440
     28 O          59.7092   89.4066    7.0224 O.3     1  UNL1       -0.3510
     29 C          59.0015   90.0813    5.8850 C.3     1  UNL1        0.1741
@<TRIPOS>BOND
     1    23    24    1
     2    24    11    1
     3    11    12   ar
     4    12    13   ar
     5    13    14    1
     6    13    15   ar
     7    15    16   ar
     8    16    17    1
     9    16    18   ar
    10    18     1    1
    11     1     2   ar
    12     2     3   ar
    13     3     4   ar
    14     4     5   ar
    15     5     6   ar
    16     5     7    1
    17     7    25    1
    18    25    26    1
    19    26    27    1
    20    27    28    1
    21    28    29    1
    22     7     8    1
    23     8     9    1
    24     9    10    1
    25    18    11   ar
    26     6     1   ar
    27    10     4    1
    28    14    19    1
    29    14    20    1
    30    17    21    1
    31    17    22    1
@<TRIPOS>MOLECULE
*****
 29 31 0 0 0
SMALL
GASTEIGER

@<TRIPOS>ATOM
      1 C          63.3928   85.5261   13.4394 C.ar    1  UNL1        0.0050
      2 C          64.2566   86.1449   14.4981 C.ar    1  UNL1       -0.0001
      3 C          64.5242   87.6207   14.4797 C.ar    1  UNL1       -0.0030
      4 C          63.9279   88.4777   13.4027 C.ar    1  UNL1       -0.0088
      5 C          63.0641   87.8589   12.3439 C.ar    1  UNL1        0.0438
      6 C          62.7966   86.3831   12.3623 C.ar    1  UNL1        0.0143
      7 N          62.4679   88.7159   11.2669 N.pl3   1  UNL1       -0.3076
      8 C          62.7355   90.1917   11.2485 C.3     1  UNL1        0.0911
      9 C          63.5993   90.8106   12.3073 C.3     1  UNL1        0.0261
     10 C          64.1955   89.9536   13.3843 C.3     1  UNL1        0.0294
     11 C          63.6383   83.1812   12.3479 C.ar    1  UNL1        0.0645
     12 N          63.3707   81.7054   12.3662 N.ar    1  UNL1       -0.2183
     13 C          62.5901   81.0986   13.4942 C.ar    1  UNL1        0.2145
     14 N          62.3226   79.6228   13.5125 N.pl3   1  UNL1       -0.3274
     15 N          62.0771   81.9676   14.6040 N.ar    1  UNL1       -0.1995
     16 C          62.3447   83.4435   14.5857 C.ar    1  UNL1        0.1293
     17 N          61.8316   84.3125   15.6955 N.pl3   1  UNL1       -0.3425
     18 C          63.1252   84.0503   13.4577 C.ar    1  UNL1        0.0449
     19 H          62.6593   79.0524   12.7841 H       1  UNL1        0.1452
     20 H          61.8102   79.2245   14.2529 H       1  UNL1        0.1452
     21 H          61.3193   83.9143   16.4358 H       1  UNL1        0.1437
     22 H          62.0072   85.2812   15.6835 H       1  UNL1        0.1437
     23 C          63.9702   83.5852    9.8030 C.3     1  UNL1        0.0067
     24 C          64.4189   83.7881   11.2198 C.3     1  UNL1        0.0460
     25 C          61.6041   88.0971   10.2082 C.3     1  UNL1        0.0933
     26 C          62.1771   87.0676    9.2799 C.3     1  UNL1        0.0535
     27 C          61.2991   85.9836    8.7283 C.3     1  UNL1        0.1440
     28 O          60.3927   86.2703    7.5680 O.3     1  UNL1       -0.3510
     29 C          59.0135   86.8085    7.8089 C.3     1  UNL1        0.1741
@<TRIPOS>BOND
     1    23    24    1
     2    24    11    1
     3    11    12   ar
     4    12    13   ar
     5    13    14    1
     6    13    15   ar
     7    15    16   ar
     8    16    17    1
     9    16    18   ar
    10    18     1    1
    11     1     2   ar
    12     2     3   ar
    13     3     4   ar
    14     4     5   ar
    15     5     6   ar
    16     5     7    1
    17     7    25    1
    18    25    26    1
    19    26    27    1
    20    27    28    1
    21    28    29    1
    22     7     8    1
    23     8     9    1
    24     9    10    1
    25    18    11   ar
    26     6     1   ar
    27    10     4    1
    28    14    19    1
    29    14    20    1
    30    17    21    1
    31    17    22    1
@<TRIPOS>MOLECULE
*****
 29 31 0 0 0
SMALL
GASTEIGER

@<TRIPOS>ATOM
      1 C          63.5637   85.1425   13.6430 C.ar    1  UNL1        0.0050
      2 C          64.3808   85.6474   14.7951 C.ar    1  UNL1       -0.0001
      3 C          64.6685   87.1138   14.9248 C.ar    1  UNL1       -0.0030
      4 C          64.1393   88.0753   13.9023 C.ar    1  UNL1       -0.0088
      5 C          63.3223   87.5703   12.7501 C.ar    1  UNL1        0.0438
      6 C          63.0345   86.1040   12.6205 C.ar    1  UNL1        0.0143
      7 N          62.7930   88.5318   11.7276 N.pl3   1  UNL1       -0.3076
      8 C          63.0808   89.9982   11.8572 C.3     1  UNL1        0.0911
      9 C          63.8978   90.5032   13.0094 C.3     1  UNL1        0.0261
     10 C          64.4271   89.5417   14.0319 C.3     1  UNL1        0.0294
     11 C          63.7006   82.9346   12.2805 C.ar    1  UNL1        0.0645
     12 N          63.4128   81.4682   12.1508 N.ar    1  UNL1       -0.2183
     13 C          62.7003   80.7432   13.2539 C.ar    1  UNL1        0.2145
     14 N          62.4126   79.2768   13.1242 N.pl3   1  UNL1       -0.3274
     15 N          62.2757   81.4847   14.4867 N.ar    1  UNL1       -0.1995
     16 C          62.5635   82.9512   14.6164 C.ar    1  UNL1        0.1293
     17 N          62.1388   83.6926   15.8492 N.pl3   1  UNL1       -0.3425
     18 C          63.2759   83.6760   13.5133 C.ar    1  UNL1        0.0449
     19 H          62.6913   78.7902   12.3150 H       1  UNL1        0.1452
     20 H          61.9449   78.8010   13.8482 H       1  UNL1        0.1452
     21 H          61.6712   83.2168   16.5732 H       1  UNL1        0.1437
     22 H          62.3277   84.6551   15.9344 H       1  UNL1        0.1437
     23 C          63.8227   83.6940    9.7989 C.3     1  UNL1        0.0067
     24 C          64.4131   83.6595   11.1773 C.3     1  UNL1        0.0460
     25 C          61.9760   88.0269   10.5755 C.3     1  UNL1        0.0933
     26 C          61.4925   88.9809    9.5238 C.3     1  UNL1        0.0535
     27 C          60.1234   89.5844    9.6309 C.3     1  UNL1        0.1440
     28 O          59.7897   90.4872   10.7814 O.3     1  UNL1       -0.3510
     29 C          59.3376   89.9027   12.0867 C.3     1  UNL1        0.1741
@<TRIPOS>BOND
     1    23    24    1
     2    24    11    1
     3    11    12   ar
     4    12    13   ar
     5    13    14    1
     6    13    15   ar
     7    15    16   ar
     8    16    17    1
     9    16    18   ar
    10    18     1    1
    11     1     2   ar
    12     2     3   ar
    13     3     4   ar
    14     4     5   ar
    15     5     6   ar
    16     5     7    1
    17     7    25    1
    18    25    26    1
    19    26    27    1
    20    27    28    1
    21    28    29    1
    22     7     8    1
    23     8     9    1
    24     9    10    1
    25    18    11   ar
    26     6     1   ar
    27    10     4    1
    28    14    19    1
    29    14    20    1
    30    17    21    1
    31    17    22    1
@<TRIPOS>MOLECULE
*****
 29 31 0 0 0
SMALL
GASTEIGER

@<TRIPOS>ATOM
      1 C          62.0986   86.3450   10.7195 C.ar    1  UNL1        0.0050
      2 C          62.6514   85.9646    9.3780 C.ar    1  UNL1       -0.0001
      3 C          63.3394   84.6441    9.1975 C.ar    1  UNL1       -0.0030
      4 C          63.4746   83.7039   10.3584 C.ar    1  UNL1       -0.0088
      5 C          62.9218   84.0842   11.6999 C.ar    1  UNL1        0.0438
      6 C          62.2338   85.4048   11.8804 C.ar    1  UNL1        0.0143
      7 N          63.0569   83.1440   12.8608 N.pl3   1  UNL1       -0.3076
      8 C          63.7449   81.8234   12.6802 C.3     1  UNL1        0.0911
      9 C          64.2978   81.4430   11.3387 C.3     1  UNL1        0.0261
     10 C          64.1626   82.3832   10.1778 C.3     1  UNL1        0.0294
     11 C          60.1434   87.9595   10.1532 C.ar    1  UNL1        0.0645
     12 N          59.4553   89.2801   10.3337 N.ar    1  UNL1       -0.2183
     13 C          60.0345   90.3069   11.2613 C.ar    1  UNL1        0.2145
     14 N          59.3464   91.6275   11.4419 N.pl3   1  UNL1       -0.3274
     15 N          61.3016   90.0131   12.0083 N.ar    1  UNL1       -0.1995
     16 C          61.9897   88.6924   11.8277 C.ar    1  UNL1        0.1293
     17 N          63.2568   88.3986   12.5747 N.pl3   1  UNL1       -0.3425
     18 C          61.4105   87.6657   10.9001 C.ar    1  UNL1        0.0449
     19 H          58.5147   91.8203   10.9516 H       1  UNL1        0.1452
     20 H          59.7265   92.3014   12.0507 H       1  UNL1        0.1452
     21 H          63.6369   89.0725   13.1835 H       1  UNL1        0.1437
     22 H          63.7084   87.5318   12.4561 H       1  UNL1        0.1437
     23 C          59.2743   87.2903    7.7979 C.3     1  UNL1        0.0067
     24 C          59.5643   86.9327    9.2255 C.3     1  UNL1        0.0460
     25 C          62.5041   83.5244   14.2023 C.3     1  UNL1        0.0933
     26 C          63.4346   83.8852   15.3221 C.3     1  UNL1        0.0535
     27 C          64.0325   85.2594   15.3872 C.3     1  UNL1        0.1440
     28 O          63.2545   86.3876   15.9972 O.3     1  UNL1       -0.3510
     29 C          62.7270   86.2647   17.3960 C.3     1  UNL1        0.1741
@<TRIPOS>BOND
     1    23    24    1
     2    24    11    1
     3    11    12   ar
     4    12    13   ar
     5    13    14    1
     6    13    15   ar
     7    15    16   ar
     8    16    17    1
     9    16    18   ar
    10    18     1    1
    11     1     2   ar
    12     2     3   ar
    13     3     4   ar
    14     4     5   ar
    15     5     6   ar
    16     5     7    1
    17     7    25    1
    18    25    26    1
    19    26    27    1
    20    27    28    1
    21    28    29    1
    22     7     8    1
    23     8     9    1
    24     9    10    1
    25    18    11   ar
    26     6     1   ar
    27    10     4    1
    28    14    19    1
    29    14    20    1
    30    17    21    1
    31    17    22    1
@<TRIPOS>MOLECULE
*****
 29 31 0 0 0
SMALL
GASTEIGER

@<TRIPOS>ATOM
      1 C          62.7874   85.6571   12.1502 C.ar    1  UNL1        0.0050
      2 C          62.0532   85.8124   10.8515 C.ar    1  UNL1       -0.0001
      3 C          61.8513   87.1771   10.2627 C.ar    1  UNL1       -0.0030
      4 C          62.3836   88.3865   10.9725 C.ar    1  UNL1       -0.0088
      5 C          63.1179   88.2312   12.2712 C.ar    1  UNL1        0.0438
      6 C          63.3198   86.8665   12.8601 C.ar    1  UNL1        0.0143
      7 N          63.6503   89.4406   12.9810 N.pl3   1  UNL1       -0.3076
      8 C          63.4484   90.8053   12.3922 C.3     1  UNL1        0.0911
      9 C          62.7141   90.9607   11.0934 C.3     1  UNL1        0.0261
     10 C          62.1817   89.7512   10.3836 C.3     1  UNL1        0.0294
     11 C          63.6734   83.2239   11.9389 C.ar    1  UNL1        0.0645
     12 N          63.8753   81.8592   12.5277 N.ar    1  UNL1       -0.2183
     13 C          63.3932   81.5629   13.9170 C.ar    1  UNL1        0.2145
     14 N          63.5952   80.1982   14.5058 N.pl3   1  UNL1       -0.3274
     15 N          62.7092   82.6314   14.7173 N.ar    1  UNL1       -0.1995
     16 C          62.5073   83.9962   14.1283 C.ar    1  UNL1        0.1293
     17 N          61.8233   85.0646   14.9286 N.pl3   1  UNL1       -0.3425
     18 C          62.9894   84.2924   12.7392 C.ar    1  UNL1        0.0449
     19 H          64.0441   79.4970   13.9805 H       1  UNL1        0.1452
     20 H          63.2788   80.0038   15.4176 H       1  UNL1        0.1452
     21 H          61.5069   84.8702   15.8404 H       1  UNL1        0.1437
     22 H          61.6907   85.9603   14.5421 H       1  UNL1        0.1437
     23 C          64.2285   82.4216    9.5309 C.3     1  UNL1        0.0067
     24 C          64.1555   83.5202   10.5496 C.3     1  UNL1        0.0460
     25 C          64.3846   89.2854   14.2797 C.3     1  UNL1        0.0933
     26 C          63.8419   89.9155   15.5281 C.3     1  UNL1        0.0535
     27 C          63.0816   89.0841   16.5185 C.3     1  UNL1        0.1440
     28 O          63.2392   87.5924   16.5232 O.3     1  UNL1       -0.3510
     29 C          62.7395   86.7891   17.6872 C.3     1  UNL1        0.1741
@<TRIPOS>BOND
     1    23    24    1
     2    24    11    1
     3    11    12   ar
     4    12    13   ar
     5    13    14    1
     6    13    15   ar
     7    15    16   ar
     8    16    17    1
     9    16    18   ar
    10    18     1    1
    11     1     2   ar
    12     2     3   ar
    13     3     4   ar
    14     4     5   ar
    15     5     6   ar
    16     5     7    1
    17     7    25    1
    18    25    26    1
    19    26    27    1
    20    27    28    1
    21    28    29    1
    22     7     8    1
    23     8     9    1
    24     9    10    1
    25    18    11   ar
    26     6     1   ar
    27    10     4    1
    28    14    19    1
    29    14    20    1
    30    17    21    1
    31    17    22    1
