@<TRIPOS>MOLECULE
*****
 43 46 0 0 0
SMALL
GASTEIGER

@<TRIPOS>ATOM
      1 C          64.0013   89.1315   13.1490 C.ar    1  UNL1        0.0053
      2 C          64.1888   89.0073   14.6320 C.ar    1  UNL1        0.0033
      3 C          63.9777   87.6842   15.3064 C.ar    1  UNL1        0.0382
      4 C          63.5791   86.4854   14.4978 C.ar    1  UNL1        0.1529
      5 C          63.3916   86.6096   13.0148 C.ar    1  UNL1        0.0882
      6 C          63.6027   87.9327   12.3404 C.ar    1  UNL1        0.0181
      7 N          62.9930   85.4108   12.2061 N.am    1  UNL1       -0.2512
      8 C          62.7819   84.0877   12.8805 C.2     1  UNL1        0.2698
      9 O          62.3833   82.8888   12.0719 O.2     1  UNL1       -0.2704
     10 C          62.9694   83.9634   14.3636 C.3     1  UNL1        0.2197
     11 C          63.0252   83.3486   15.7307 C.3     1  UNL1        0.0579
     12 O          63.3680   85.1622   15.1722 O.3     1  UNL1       -0.4686
     13 C          65.1017   91.4847   13.1056 C.ar    1  UNL1        0.0645
     14 N          65.3128   92.8078   12.4312 N.ar    1  UNL1       -0.2183
     15 C          64.6346   93.1009   11.1257 C.ar    1  UNL1        0.2145
     16 N          64.8457   94.4240   10.4513 N.pl3   1  UNL1       -0.3274
     17 N          63.7454   92.0708   10.4947 N.ar    1  UNL1       -0.1995
     18 C          63.5343   90.7477   11.1691 C.ar    1  UNL1        0.1293
     19 N          62.6450   89.7177   10.5381 N.pl3   1  UNL1       -0.3425
     20 C          64.2124   90.4547   12.4746 C.ar    1  UNL1        0.0449
     21 H          65.4294   95.1000   10.8655 H       1  UNL1        0.1452
     22 H          64.4007   94.6163    9.5945 H       1  UNL1        0.1452
     23 H          62.1999   89.9100    9.6812 H       1  UNL1        0.1437
     24 H          62.5065   88.8493   10.9807 H       1  UNL1        0.1437
     25 C          67.1897   91.6482   14.6430 C.3     1  UNL1        0.0067
     26 C          65.7798   91.1916   14.4111 C.3     1  UNL1        0.0460
     27 C          62.5902   82.5511   14.0298 C.ar    1  UNL1        0.0219
     28 C          63.5966   81.6326   13.4025 C.ar    1  UNL1       -0.0005
     29 C          63.2174   80.2202   13.0687 C.ar    1  UNL1       -0.0003
     30 C          61.8318   79.7263   13.3620 C.ar    1  UNL1        0.0038
     31 C          60.8254   80.6449   13.9893 C.ar    1  UNL1        0.0712
     32 C          61.2045   82.0572   14.3231 C.ar    1  UNL1        0.0034
     33 C          59.4397   80.1510   14.2826 C.3     1  UNL1        0.4186
     34 F          58.0540   79.6571   14.5760 F       1  UNL1       -0.1659
     35 F          58.9377   81.5644   14.2912 F       1  UNL1       -0.1659
     36 F          59.9417   78.7375   14.2740 F       1  UNL1       -0.1659
     37 C          62.8055   85.5350   10.7231 C.3     1  UNL1        0.1196
     38 C          61.4230   85.6023   10.1450 C.3     1  UNL1        0.1113
     39 N          60.8812   86.9093    9.6468 N.am    1  UNL1       -0.3026
     40 C          60.1614   86.9706    8.3323 C.2     1  UNL1        0.2230
     41 C          59.6195   88.2776    7.8341 C.3     1  UNL1        0.0946
     42 O          59.9833   85.7249    7.5159 O.2     1  UNL1       -0.2751
     43 H          60.9981   87.7269   10.1827 H       1  UNL1        0.1495
@<TRIPOS>BOND
     1    25    26    1
     2    26    13    1
     3    13    14   ar
     4    14    15   ar
     5    15    16    1
     6    15    17   ar
     7    17    18   ar
     8    18    19    1
     9    18    20   ar
    10    20     1    1
    11     1     2   ar
    12     2     3   ar
    13     3     4   ar
    14     4     5   ar
    15     5     6   ar
    16     5     7    1
    17     7    37    1
    18    37    38    1
    19    38    39    1
    20    39    40   am
    21    40    41    1
    22    40    42    2
    23     7     8   am
    24     8     9    2
    25     8    10    1
    26    10    11    1
    27    10    27    1
    28    27    28   ar
    29    28    29   ar
    30    29    30   ar
    31    30    31   ar
    32    31    33    1
    33    33    34    1
    34    33    35    1
    35    33    36    1
    36    31    32   ar
    37    10    12    1
    38    20    13   ar
    39     6     1   ar
    40    32    27   ar
    41    12     4    1
    42    16    21    1
    43    16    22    1
    44    19    23    1
    45    19    24    1
    46    39    43    1
@<TRIPOS>MOLECULE
*****
 43 46 0 0 0
SMALL
GASTEIGER

@<TRIPOS>ATOM
      1 C          64.3071   89.5972   13.0879 C.ar    1  UNL1        0.0053
      2 C          64.6954   89.3536   14.5161 C.ar    1  UNL1        0.0033
      3 C          64.4856   88.0013   15.1301 C.ar    1  UNL1        0.0382
      4 C          63.8874   86.8926   14.3160 C.ar    1  UNL1        0.1529
      5 C          63.4991   87.1361   12.8878 C.ar    1  UNL1        0.0882
      6 C          63.7089   88.4884   12.2737 C.ar    1  UNL1        0.0181
      7 N          62.9009   86.0273   12.0737 N.am    1  UNL1       -0.2512
      8 C          62.6910   84.6750   12.6878 C.2     1  UNL1        0.2698
      9 O          62.0928   83.5662   11.8737 O.2     1  UNL1       -0.2704
     10 C          63.0794   84.4314   14.1161 C.3     1  UNL1        0.2197
     11 C          63.2848   83.7166   15.4187 C.3     1  UNL1        0.0579
     12 O          63.6776   85.5402   14.9302 O.3     1  UNL1       -0.4686
     13 C          65.3753   91.9642   13.1693 C.ar    1  UNL1        0.0645
     14 N          65.5851   93.3165   12.5552 N.ar    1  UNL1       -0.2183
     15 C          64.9366   93.6543   11.2454 C.ar    1  UNL1        0.2145
     16 N          65.1464   95.0066   10.6313 N.pl3   1  UNL1       -0.3274
     17 N          64.0783   92.6397   10.5498 N.ar    1  UNL1       -0.1995
     18 C          63.8684   91.2873   11.1640 C.ar    1  UNL1        0.1293
     19 N          63.0101   90.2727   10.4684 N.pl3   1  UNL1       -0.3425
     20 C          64.5169   90.9496   12.4737 C.ar    1  UNL1        0.0449
     21 H          65.7098   95.6725   11.0879 H       1  UNL1        0.1452
     22 H          64.7208   95.2283    9.7717 H       1  UNL1        0.1452
     23 H          62.5845   90.4944    9.6088 H       1  UNL1        0.1437
     24 H          62.8724   89.3851   10.8715 H       1  UNL1        0.1437
     25 C          67.4799   91.9167   14.6919 C.3     1  UNL1        0.0067
     26 C          66.0238   91.6264   14.4791 C.3     1  UNL1        0.0460
     27 C          62.5525   83.0744   13.7543 C.ar    1  UNL1        0.0219
     28 C          61.5376   82.4052   14.6330 C.ar    1  UNL1       -0.0005
     29 C          61.0107   81.0481   14.2712 C.ar    1  UNL1       -0.0003
     30 C          61.4988   80.3603   13.0309 C.ar    1  UNL1        0.0038
     31 C          62.5137   81.0295   12.1523 C.ar    1  UNL1        0.0712
     32 C          63.0407   82.3865   12.5139 C.ar    1  UNL1        0.0034
     33 C          63.0019   80.3416   10.9118 C.3     1  UNL1        0.4186
     34 F          63.4900   79.6536    9.6714 F       1  UNL1       -0.1659
     35 F          63.4364   81.6627   10.3500 F       1  UNL1       -0.1659
     36 F          62.5674   79.0203   11.4736 F       1  UNL1       -0.1659
     37 C          62.5125   86.2709   10.6455 C.3     1  UNL1        0.1196
     38 C          61.1434   86.7890   10.3184 C.3     1  UNL1        0.1113
     39 N          60.3196   87.4543   11.3810 N.am    1  UNL1       -0.3026
     40 C          59.8606   88.8705   11.1972 C.2     1  UNL1        0.2230
     41 C          59.0370   89.5358   12.2596 C.3     1  UNL1        0.0946
     42 O          60.2254   89.6213    9.9508 O.2     1  UNL1       -0.2751
     43 H          60.0803   86.9615   12.1990 H       1  UNL1        0.1495
@<TRIPOS>BOND
     1    25    26    1
     2    26    13    1
     3    13    14   ar
     4    14    15   ar
     5    15    16    1
     6    15    17   ar
     7    17    18   ar
     8    18    19    1
     9    18    20   ar
    10    20     1    1
    11     1     2   ar
    12     2     3   ar
    13     3     4   ar
    14     4     5   ar
    15     5     6   ar
    16     5     7    1
    17     7    37    1
    18    37    38    1
    19    38    39    1
    20    39    40   am
    21    40    41    1
    22    40    42    2
    23     7     8   am
    24     8     9    2
    25     8    10    1
    26    10    11    1
    27    10    27    1
    28    27    28   ar
    29    28    29   ar
    30    29    30   ar
    31    30    31   ar
    32    31    33    1
    33    33    34    1
    34    33    35    1
    35    33    36    1
    36    31    32   ar
    37    10    12    1
    38    20    13   ar
    39     6     1   ar
    40    32    27   ar
    41    12     4    1
    42    16    21    1
    43    16    22    1
    44    19    23    1
    45    19    24    1
    46    39    43    1
@<TRIPOS>MOLECULE
*****
 43 46 0 0 0
SMALL
GASTEIGER

@<TRIPOS>ATOM
      1 C          64.2096   89.4622   13.0441 C.ar    1  UNL1        0.0053
      2 C          64.5694   89.2290   14.4815 C.ar    1  UNL1        0.0033
      3 C          64.3610   87.8771   15.0970 C.ar    1  UNL1        0.0382
      4 C          63.7928   86.7584   14.2752 C.ar    1  UNL1        0.1529
      5 C          63.4329   86.9915   12.8378 C.ar    1  UNL1        0.0882
      6 C          63.6413   88.3434   12.2223 C.ar    1  UNL1        0.0181
      7 N          62.8646   85.8728   12.0159 N.am    1  UNL1       -0.2512
      8 C          62.6562   84.5209   12.6314 C.2     1  UNL1        0.2698
      9 O          62.0879   83.4021   11.8096 O.2     1  UNL1       -0.2704
     10 C          63.0161   84.2877   14.0689 C.3     1  UNL1        0.2197
     11 C          63.2009   83.5807   15.3789 C.3     1  UNL1        0.0579
     12 O          63.5844   85.4064   14.8907 O.3     1  UNL1       -0.4686
     13 C          63.6900   91.1857   11.1708 C.ar    1  UNL1        0.0645
     14 N          63.8984   92.5376   10.5552 N.ar    1  UNL1       -0.2183
     15 C          64.8347   93.5179   11.1974 C.ar    1  UNL1        0.2145
     16 N          65.0431   94.8698   10.5818 N.pl3   1  UNL1       -0.3274
     17 N          65.5626   93.1463   12.4552 N.ar    1  UNL1       -0.1995
     18 C          65.3542   91.7944   13.0708 C.ar    1  UNL1        0.1293
     19 N          66.0821   91.4227   14.3285 N.pl3   1  UNL1       -0.3425
     20 C          64.4180   90.8141   12.4286 C.ar    1  UNL1        0.0449
     21 H          64.5653   95.1137    9.7563 H       1  UNL1        0.1452
     22 H          65.6576   95.5132   11.0033 H       1  UNL1        0.1452
     23 H          66.6967   92.0661   14.7500 H       1  UNL1        0.1437
     24 H          65.9454   90.5354   14.7326 H       1  UNL1        0.1437
     25 C          61.2805   90.4858   10.4966 C.3     1  UNL1        0.0067
     26 C          62.7537   90.2054   10.5286 C.3     1  UNL1        0.0460
     27 C          62.5120   82.9234   13.7020 C.ar    1  UNL1        0.0219
     28 C          61.4953   82.2414   14.5687 C.ar    1  UNL1       -0.0005
     29 C          60.9912   80.8771   14.2017 C.ar    1  UNL1       -0.0003
     30 C          61.5037   80.1949   12.9682 C.ar    1  UNL1        0.0038
     31 C          62.5204   80.8769   12.1015 C.ar    1  UNL1        0.0712
     32 C          63.0245   82.2412   12.4683 C.ar    1  UNL1        0.0034
     33 C          63.0330   80.1947   10.8678 C.3     1  UNL1        0.4186
     34 F          63.5455   79.5124    9.6342 F       1  UNL1       -0.1659
     35 F          63.4616   81.5205   10.3126 F       1  UNL1       -0.1659
     36 F          62.6043   78.8687   11.4230 F       1  UNL1       -0.1659
     37 C          62.5047   86.1059   10.5786 C.3     1  UNL1        0.1196
     38 C          61.0645   86.1263   10.1598 C.3     1  UNL1        0.1113
     39 N          60.5049   87.3274    9.4566 N.am    1  UNL1       -0.3026
     40 C          59.8583   87.1753    8.1116 C.2     1  UNL1        0.2230
     41 C          59.2987   88.3763    7.4084 C.3     1  UNL1        0.0946
     42 O          59.7714   85.8223    7.4699 O.2     1  UNL1       -0.2751
     43 H          60.5619   88.2154    9.8778 H       1  UNL1        0.1495
@<TRIPOS>BOND
     1    25    26    1
     2    26    13    1
     3    13    14   ar
     4    14    15   ar
     5    15    16    1
     6    15    17   ar
     7    17    18   ar
     8    18    19    1
     9    18    20   ar
    10    20     1    1
    11     1     2   ar
    12     2     3   ar
    13     3     4   ar
    14     4     5   ar
    15     5     6   ar
    16     5     7    1
    17     7    37    1
    18    37    38    1
    19    38    39    1
    20    39    40   am
    21    40    41    1
    22    40    42    2
    23     7     8   am
    24     8     9    2
    25     8    10    1
    26    10    11    1
    27    10    27    1
    28    27    28   ar
    29    28    29   ar
    30    29    30   ar
    31    30    31   ar
    32    31    33    1
    33    33    34    1
    34    33    35    1
    35    33    36    1
    36    31    32   ar
    37    10    12    1
    38    20    13   ar
    39     6     1   ar
    40    32    27   ar
    41    12     4    1
    42    16    21    1
    43    16    22    1
    44    19    23    1
    45    19    24    1
    46    39    43    1
@<TRIPOS>MOLECULE
*****
 43 46 0 0 0
SMALL
GASTEIGER

@<TRIPOS>ATOM
      1 C          62.4197   86.2119   10.2780 C.ar    1  UNL1        0.0053
      2 C          62.5823   85.2384   11.4075 C.ar    1  UNL1        0.0033
      3 C          63.0123   85.7240   12.7600 C.ar    1  UNL1        0.0382
      4 C          63.2796   87.1830   12.9830 C.ar    1  UNL1        0.1529
      5 C          63.1169   88.1565   11.8536 C.ar    1  UNL1        0.0882
      6 C          62.6869   87.6710   10.5010 C.ar    1  UNL1        0.0181
      7 N          63.3841   89.6156   12.0766 N.am    1  UNL1       -0.2512
      8 C          63.8141   90.1011   13.4291 C.2     1  UNL1        0.2698
      9 O          64.0814   91.5602   13.6521 O.2     1  UNL1       -0.2704
     10 C          63.9768   89.1276   14.5587 C.3     1  UNL1        0.2197
     11 C          64.2673   88.5968   15.9312 C.3     1  UNL1        0.0579
     12 O          63.7095   87.6686   14.3356 O.3     1  UNL1       -0.4686
     13 C          60.7241   86.2452    8.3098 C.ar    1  UNL1        0.0645
     14 N          60.2941   85.7597    6.9573 N.ar    1  UNL1       -0.2183
     15 C          61.1297   84.7554    6.2203 C.ar    1  UNL1        0.2145
     16 N          60.6997   84.2699    4.8678 N.pl3   1  UNL1       -0.3274
     17 N          62.3953   84.2366    6.8359 N.ar    1  UNL1       -0.1995
     18 C          62.8253   84.7221    8.1885 C.ar    1  UNL1        0.1293
     19 N          64.0909   84.2033    8.8042 N.pl3   1  UNL1       -0.3425
     20 C          61.9897   85.7264    8.9254 C.ar    1  UNL1        0.0449
     21 H          59.8691   84.6104    4.4637 H       1  UNL1        0.1452
     22 H          61.2482   83.6107    4.3841 H       1  UNL1        0.1452
     23 H          64.6394   83.5441    8.3205 H       1  UNL1        0.1437
     24 H          64.3731   84.5219    9.6919 H       1  UNL1        0.1437
     25 C          59.7019   88.6275    8.4840 C.3     1  UNL1        0.0067
     26 C          59.8884   87.2496    9.0467 C.3     1  UNL1        0.0460
     27 C          64.3450   90.4023   15.2583 C.ar    1  UNL1        0.0219
     28 C          63.3868   91.0300   16.2268 C.ar    1  UNL1       -0.0005
     29 C          63.7550   92.3048   16.9264 C.ar    1  UNL1       -0.0003
     30 C          65.0813   92.9518   16.6577 C.ar    1  UNL1        0.0038
     31 C          66.0394   92.3240   15.6893 C.ar    1  UNL1        0.0712
     32 C          65.6713   91.0493   14.9896 C.ar    1  UNL1        0.0034
     33 C          67.3658   92.9710   15.4206 C.3     1  UNL1        0.4186
     34 F          68.6922   93.6180   15.1518 F       1  UNL1       -0.1659
     35 F          66.6900   94.0013   14.5652 F       1  UNL1       -0.1659
     36 F          68.0417   91.9407   16.2760 F       1  UNL1       -0.1659
     37 C          63.2215   90.5891   10.9471 C.3     1  UNL1        0.1196
     38 C          64.4210   91.2921   10.3842 C.3     1  UNL1        0.1113
     39 N          64.5837   92.7706   10.5788 N.am    1  UNL1       -0.3026
     40 C          65.8483   93.3138   11.1752 C.2     1  UNL1        0.2230
     41 C          66.0110   94.7922   11.3698 C.3     1  UNL1        0.0946
     42 O          66.9502   92.3787   11.5770 O.2     1  UNL1       -0.2751
     43 H          63.8605   93.3843   10.3151 H       1  UNL1        0.1495
@<TRIPOS>BOND
     1    25    26    1
     2    26    13    1
     3    13    14   ar
     4    14    15   ar
     5    15    16    1
     6    15    17   ar
     7    17    18   ar
     8    18    19    1
     9    18    20   ar
    10    20     1    1
    11     1     2   ar
    12     2     3   ar
    13     3     4   ar
    14     4     5   ar
    15     5     6   ar
    16     5     7    1
    17     7    37    1
    18    37    38    1
    19    38    39    1
    20    39    40   am
    21    40    41    1
    22    40    42    2
    23     7     8   am
    24     8     9    2
    25     8    10    1
    26    10    11    1
    27    10    27    1
    28    27    28   ar
    29    28    29   ar
    30    29    30   ar
    31    30    31   ar
    32    31    33    1
    33    33    34    1
    34    33    35    1
    35    33    36    1
    36    31    32   ar
    37    10    12    1
    38    20    13   ar
    39     6     1   ar
    40    32    27   ar
    41    12     4    1
    42    16    21    1
    43    16    22    1
    44    19    23    1
    45    19    24    1
    46    39    43    1
@<TRIPOS>MOLECULE
*****
 43 46 0 0 0
SMALL
GASTEIGER

@<TRIPOS>ATOM
      1 C          62.3752   86.1101   10.3706 C.ar    1  UNL1        0.0053
      2 C          62.3739   85.1840   11.5505 C.ar    1  UNL1        0.0033
      3 C          62.7714   85.6935   12.9042 C.ar    1  UNL1        0.0382
      4 C          63.1702   87.1290   13.0779 C.ar    1  UNL1        0.1529
      5 C          63.1715   88.0551   11.8979 C.ar    1  UNL1        0.0882
      6 C          62.7740   87.5456   10.5443 C.ar    1  UNL1        0.0181
      7 N          63.5703   89.4906   12.0716 N.am    1  UNL1       -0.2512
      8 C          63.9679   90.0001   13.4253 C.2     1  UNL1        0.2698
      9 O          64.3667   91.4356   13.5990 O.2     1  UNL1       -0.2704
     10 C          63.9666   89.0740   14.6053 C.3     1  UNL1        0.2197
     11 C          64.1226   88.5878   16.0157 C.3     1  UNL1        0.0579
     12 O          63.5677   87.6384   14.4316 O.3     1  UNL1       -0.4686
     13 C          62.8730   84.6481    8.2813 C.ar    1  UNL1        0.0645
     14 N          62.4755   84.1387    6.9277 N.ar    1  UNL1       -0.2183
     15 C          61.1826   84.5818    6.3094 C.ar    1  UNL1        0.2145
     16 N          60.7852   84.0724    4.9558 N.pl3   1  UNL1       -0.3274
     17 N          60.2873   85.5344    7.0449 N.ar    1  UNL1       -0.1995
     18 C          60.6848   86.0438    8.3987 C.ar    1  UNL1        0.1293
     19 N          59.7894   86.9963    9.1342 N.pl3   1  UNL1       -0.3425
     20 C          61.9776   85.6007    9.0168 C.ar    1  UNL1        0.0449
     21 H          61.3728   83.4472    4.4730 H       1  UNL1        0.1452
     22 H          59.9366   84.3632    4.5500 H       1  UNL1        0.1452
     23 H          58.9409   87.2871    8.7285 H       1  UNL1        0.1437
     24 H          60.0503   87.3307   10.0227 H       1  UNL1        0.1437
     25 C          64.1862   83.0358    9.8389 C.3     1  UNL1        0.0067
     26 C          64.1659   84.2050    8.8995 C.3     1  UNL1        0.0460
     27 C          64.4196   90.3406   15.2688 C.ar    1  UNL1        0.0219
     28 C          63.5192   91.0402   16.2434 C.ar    1  UNL1       -0.0005
     29 C          63.9723   92.3070   16.9069 C.ar    1  UNL1       -0.0003
     30 C          65.3256   92.8740   16.5959 C.ar    1  UNL1        0.0038
     31 C          66.2259   92.1744   15.6213 C.ar    1  UNL1        0.0712
     32 C          65.7730   90.9077   14.9577 C.ar    1  UNL1        0.0034
     33 C          67.5793   92.7415   15.3102 C.3     1  UNL1        0.4186
     34 F          68.9327   93.3086   14.9991 F       1  UNL1       -0.1659
     35 F          68.1859   91.8793   16.3772 F       1  UNL1       -0.1659
     36 F          66.9727   93.6038   14.2432 F       1  UNL1       -0.1659
     37 C          63.5717   90.4167   10.8917 C.3     1  UNL1        0.1196
     38 C          62.3466   91.2188   10.5664 C.3     1  UNL1        0.1113
     39 N          61.1327   91.1227   11.4425 N.am    1  UNL1       -0.3026
     40 C          59.9177   90.3856   10.9622 C.2     1  UNL1        0.2230
     41 C          58.7039   90.2894   11.8382 C.3     1  UNL1        0.0946
     42 O          59.9166   89.7448    9.6059 O.2     1  UNL1       -0.2751
     43 H          61.1335   91.5432   12.3326 H       1  UNL1        0.1495
@<TRIPOS>BOND
     1    25    26    1
     2    26    13    1
     3    13    14   ar
     4    14    15   ar
     5    15    16    1
     6    15    17   ar
     7    17    18   ar
     8    18    19    1
     9    18    20   ar
    10    20     1    1
    11     1     2   ar
    12     2     3   ar
    13     3     4   ar
    14     4     5   ar
    15     5     6   ar
    16     5     7    1
    17     7    37    1
    18    37    38    1
    19    38    39    1
    20    39    40   am
    21    40    41    1
    22    40    42    2
    23     7     8   am
    24     8     9    2
    25     8    10    1
    26    10    11    1
    27    10    27    1
    28    27    28   ar
    29    28    29   ar
    30    29    30   ar
    31    30    31   ar
    32    31    33    1
    33    33    34    1
    34    33    35    1
    35    33    36    1
    36    31    32   ar
    37    10    12    1
    38    20    13   ar
    39     6     1   ar
    40    32    27   ar
    41    12     4    1
    42    16    21    1
    43    16    22    1
    44    19    23    1
    45    19    24    1
    46    39    43    1
@<TRIPOS>MOLECULE
*****
 43 46 0 0 0
SMALL
GASTEIGER

@<TRIPOS>ATOM
      1 C          63.6698   89.4036   13.7241 C.ar    1  UNL1        0.0053
      2 C          62.9585   89.7273   12.4438 C.ar    1  UNL1        0.0033
      3 C          62.5886   88.6280   11.4927 C.ar    1  UNL1        0.0382
      4 C          62.9299   87.2049   11.8219 C.ar    1  UNL1        0.1529
      5 C          63.6412   86.8812   13.1022 C.ar    1  UNL1        0.0882
      6 C          64.0112   87.9805   14.0533 C.ar    1  UNL1        0.0181
      7 N          63.9825   85.4581   13.4314 N.am    1  UNL1       -0.2512
      8 C          63.6126   84.3588   12.4803 C.2     1  UNL1        0.2698
      9 O          63.9539   82.9357   12.8096 O.2     1  UNL1       -0.2704
     10 C          62.9012   84.6825   11.2000 C.3     1  UNL1        0.2197
     11 C          62.2272   84.4887    9.8741 C.3     1  UNL1        0.0579
     12 O          62.5599   86.1056   10.8708 O.3     1  UNL1       -0.4686
     13 C          65.1077   91.4884   14.3035 C.ar    1  UNL1        0.0645
     14 N          65.4778   92.5877   15.2546 N.ar    1  UNL1       -0.2183
     15 C          64.7798   92.7015   16.5775 C.ar    1  UNL1        0.2145
     16 N          65.1498   93.8008   17.5286 N.pl3   1  UNL1       -0.3274
     17 N          63.7119   91.7160   16.9492 N.ar    1  UNL1       -0.1995
     18 C          63.3419   90.6166   15.9981 C.ar    1  UNL1        0.1293
     19 N          62.2740   89.6311   16.3698 N.pl3   1  UNL1       -0.3425
     20 C          64.0398   90.5029   14.6753 C.ar    1  UNL1        0.0449
     21 H          65.8508   94.4477   17.2846 H       1  UNL1        0.1452
     22 H          64.6918   93.8755   18.3968 H       1  UNL1        0.1452
     23 H          61.8159   89.7057   17.2381 H       1  UNL1        0.1437
     24 H          62.0311   88.9096   15.7456 H       1  UNL1        0.1437
     25 C          65.5175   92.3665   11.8928 C.3     1  UNL1        0.0067
     26 C          65.8057   91.3747   12.9806 C.3     1  UNL1        0.0460
     27 C          63.0085   83.1922   11.0687 C.ar    1  UNL1        0.0219
     28 C          63.7518   82.5927    9.9120 C.ar    1  UNL1       -0.0005
     29 C          63.8590   81.1023    9.7807 C.ar    1  UNL1       -0.0003
     30 C          63.2230   80.2114   10.8061 C.ar    1  UNL1        0.0038
     31 C          62.4797   80.8109   11.9629 C.ar    1  UNL1        0.0712
     32 C          62.3724   82.3012   12.0942 C.ar    1  UNL1        0.0034
     33 C          61.8436   79.9199   12.9884 C.3     1  UNL1        0.4186
     34 F          61.2075   79.0289   14.0139 F       1  UNL1       -0.1659
     35 F          61.1777   81.1113   13.6105 F       1  UNL1       -0.1659
     36 F          62.5096   78.7284   12.3663 F       1  UNL1       -0.1659
     37 C          64.6938   85.1344   14.7117 C.3     1  UNL1        0.1196
     38 C          63.9108   84.7051   15.9169 C.3     1  UNL1        0.1113
     39 N          63.8984   85.5625   17.1477 N.am    1  UNL1       -0.3026
     40 C          62.6215   86.2065   17.6003 C.2     1  UNL1        0.2230
     41 C          62.6091   87.0639   18.8310 C.3     1  UNL1        0.0946
     42 O          61.3570   85.9932   16.8220 O.2     1  UNL1       -0.2751
     43 H          64.7283   85.7025   17.6585 H       1  UNL1        0.1495
@<TRIPOS>BOND
     1    25    26    1
     2    26    13    1
     3    13    14   ar
     4    14    15   ar
     5    15    16    1
     6    15    17   ar
     7    17    18   ar
     8    18    19    1
     9    18    20   ar
    10    20     1    1
    11     1     2   ar
    12     2     3   ar
    13     3     4   ar
    14     4     5   ar
    15     5     6   ar
    16     5     7    1
    17     7    37    1
    18    37    38    1
    19    38    39    1
    20    39    40   am
    21    40    41    1
    22    40    42    2
    23     7     8   am
    24     8     9    2
    25     8    10    1
    26    10    11    1
    27    10    27    1
    28    27    28   ar
    29    28    29   ar
    30    29    30   ar
    31    30    31   ar
    32    31    33    1
    33    33    34    1
    34    33    35    1
    35    33    36    1
    36    31    32   ar
    37    10    12    1
    38    20    13   ar
    39     6     1   ar
    40    32    27   ar
    41    12     4    1
    42    16    21    1
    43    16    22    1
    44    19    23    1
    45    19    24    1
    46    39    43    1
@<TRIPOS>MOLECULE
*****
 43 46 0 0 0
SMALL
GASTEIGER

@<TRIPOS>ATOM
      1 C          62.7981   84.0323   11.5755 C.ar    1  UNL1        0.0053
      2 C          62.0557   84.9201   10.6213 C.ar    1  UNL1        0.0033
      3 C          62.0519   86.4058   10.8278 C.ar    1  UNL1        0.0382
      4 C          62.7904   87.0036   11.9884 C.ar    1  UNL1        0.1529
      5 C          63.5328   86.1158   12.9426 C.ar    1  UNL1        0.0882
      6 C          63.5367   84.6301   12.7361 C.ar    1  UNL1        0.0181
      7 N          64.2714   86.7136   14.1033 N.am    1  UNL1       -0.2512
      8 C          64.2676   88.1993   14.3097 C.2     1  UNL1        0.2698
      9 O          65.0061   88.7971   15.4704 O.2     1  UNL1       -0.2704
     10 C          63.5251   89.0872   13.3555 C.3     1  UNL1        0.2197
     11 C          62.9726   90.3330   12.7288 C.3     1  UNL1        0.0579
     12 O          62.7866   88.4894   12.1949 O.3     1  UNL1       -0.4686
     13 C          62.2164   81.6427   12.4132 C.ar    1  UNL1        0.0645
     14 N          62.2202   80.1570   12.2068 N.ar    1  UNL1       -0.2183
     15 C          62.8097   79.5750   10.9562 C.ar    1  UNL1        0.2145
     16 N          62.8135   78.0893   10.7498 N.pl3   1  UNL1       -0.3274
     17 N          63.3953   80.4788    9.9121 N.ar    1  UNL1       -0.1995
     18 C          63.3914   81.9646   10.1185 C.ar    1  UNL1        0.1293
     19 N          63.9771   82.8684    9.0744 N.pl3   1  UNL1       -0.3425
     20 C          62.8020   82.5465   11.3690 C.ar    1  UNL1        0.0449
     21 H          62.4292   77.4962   11.4351 H       1  UNL1        0.1452
     22 H          63.2004   77.7074    9.9290 H       1  UNL1        0.1452
     23 H          64.3639   82.4864    8.2536 H       1  UNL1        0.1437
     24 H          63.9745   83.8435    9.2099 H       1  UNL1        0.1437
     25 C          62.4512   82.3053   14.9144 C.3     1  UNL1        0.0067
     26 C          61.6269   82.2247   13.6638 C.3     1  UNL1        0.0460
     27 C          64.0718   90.1177   14.2985 C.ar    1  UNL1        0.0219
     28 C          63.2898   90.5090   15.5173 C.ar    1  UNL1       -0.0005
     29 C          63.8365   91.5395   16.4603 C.ar    1  UNL1       -0.0003
     30 C          65.1651   92.1786   16.1846 C.ar    1  UNL1        0.0038
     31 C          65.9471   91.7874   14.9659 C.ar    1  UNL1        0.0712
     32 C          65.4005   90.7569   14.0228 C.ar    1  UNL1        0.0034
     33 C          67.2758   92.4266   14.6901 C.3     1  UNL1        0.4186
     34 F          68.6045   93.0658   14.4144 F       1  UNL1       -0.1659
     35 F          67.1788   93.1850   15.9806 F       1  UNL1       -0.1659
     36 F          67.3729   91.6681   13.3996 F       1  UNL1       -0.1659
     37 C          65.0138   85.8258   15.0574 C.3     1  UNL1        0.1196
     38 C          64.2841   85.1647   16.1891 C.3     1  UNL1        0.1113
     39 N          64.0635   85.9062   17.4742 N.am    1  UNL1       -0.3026
     40 C          62.6870   86.3740   17.8434 C.2     1  UNL1        0.2230
     41 C          62.4663   87.1155   19.1284 C.3     1  UNL1        0.0946
     42 O          61.5310   86.1002   16.9274 O.2     1  UNL1       -0.2751
     43 H          64.8222   86.0859   18.0753 H       1  UNL1        0.1495
@<TRIPOS>BOND
     1    25    26    1
     2    26    13    1
     3    13    14   ar
     4    14    15   ar
     5    15    16    1
     6    15    17   ar
     7    17    18   ar
     8    18    19    1
     9    18    20   ar
    10    20     1    1
    11     1     2   ar
    12     2     3   ar
    13     3     4   ar
    14     4     5   ar
    15     5     6   ar
    16     5     7    1
    17     7    37    1
    18    37    38    1
    19    38    39    1
    20    39    40   am
    21    40    41    1
    22    40    42    2
    23     7     8   am
    24     8     9    2
    25     8    10    1
    26    10    11    1
    27    10    27    1
    28    27    28   ar
    29    28    29   ar
    30    29    30   ar
    31    30    31   ar
    32    31    33    1
    33    33    34    1
    34    33    35    1
    35    33    36    1
    36    31    32   ar
    37    10    12    1
    38    20    13   ar
    39     6     1   ar
    40    32    27   ar
    41    12     4    1
    42    16    21    1
    43    16    22    1
    44    19    23    1
    45    19    24    1
    46    39    43    1
@<TRIPOS>MOLECULE
*****
 43 46 0 0 0
SMALL
GASTEIGER

@<TRIPOS>ATOM
      1 C          62.3488   86.2344   10.3719 C.ar    1  UNL1        0.0053
      2 C          62.4178   85.2876   11.5333 C.ar    1  UNL1        0.0033
      3 C          62.8433   85.7856   12.8827 C.ar    1  UNL1        0.0382
      4 C          63.1998   87.2304   13.0707 C.ar    1  UNL1        0.1529
      5 C          63.1309   88.1772   11.9094 C.ar    1  UNL1        0.0882
      6 C          62.7054   87.6792   10.5600 C.ar    1  UNL1        0.0181
      7 N          63.4874   89.6221   12.0974 N.am    1  UNL1       -0.2512
      8 C          63.9129   90.1201   13.4468 C.2     1  UNL1        0.2698
      9 O          64.2695   91.5649   13.6349 O.2     1  UNL1       -0.2704
     10 C          63.9819   89.1732   14.6083 C.3     1  UNL1        0.2197
     11 C          64.2011   88.6671   16.0032 C.3     1  UNL1        0.0579
     12 O          63.6253   87.7284   14.4202 O.3     1  UNL1       -0.4686
     13 C          62.7876   84.7648    8.2748 C.ar    1  UNL1        0.0645
     14 N          62.3622   84.2668    6.9254 N.ar    1  UNL1       -0.2183
     15 C          61.0724   84.7404    6.3236 C.ar    1  UNL1        0.2145
     16 N          60.6469   84.2425    4.9741 N.pl3   1  UNL1       -0.3274
     17 N          60.2081   85.7120    7.0712 N.ar    1  UNL1       -0.1995
     18 C          60.6336   86.2100    8.4207 C.ar    1  UNL1        0.1293
     19 N          59.7693   87.1816    9.1683 N.pl3   1  UNL1       -0.3425
     20 C          61.9233   85.7364    9.0225 C.ar    1  UNL1        0.0449
     21 H          61.2142   83.6048    4.4835 H       1  UNL1        0.1452
     22 H          59.8004   84.5533    4.5792 H       1  UNL1        0.1452
     23 H          58.9227   87.4925    8.7733 H       1  UNL1        0.1437
     24 H          60.0485   87.5085   10.0540 H       1  UNL1        0.1437
     25 C          64.0871   83.0991    9.7870 C.3     1  UNL1        0.0067
     26 C          64.0775   84.2912    8.8767 C.3     1  UNL1        0.0460
     27 C          64.4145   90.4423   15.2807 C.ar    1  UNL1        0.0219
     28 C          63.4938   91.1330   16.2426 C.ar    1  UNL1       -0.0005
     29 C          63.9265   92.4021   16.9151 C.ar    1  UNL1       -0.0003
     30 C          65.2798   92.9804   16.6258 C.ar    1  UNL1        0.0038
     31 C          66.2006   92.2897   15.6640 C.ar    1  UNL1        0.0712
     32 C          65.7680   91.0206   14.9914 C.ar    1  UNL1        0.0034
     33 C          67.5541   92.8681   15.3746 C.3     1  UNL1        0.4186
     34 F          68.9075   93.4465   15.0853 F       1  UNL1       -0.1659
     35 F          68.1608   91.9647   16.4069 F       1  UNL1       -0.1659
     36 F          66.9473   93.7716   14.3423 F       1  UNL1       -0.1659
     37 C          63.4185   90.5689   10.9361 C.3     1  UNL1        0.1196
     38 C          64.1170   91.8944   11.0067 C.3     1  UNL1        0.1113
     39 N          65.5494   92.0112   10.5769 N.am    1  UNL1       -0.3026
     40 C          66.1481   93.3627   10.3217 C.2     1  UNL1        0.2230
     41 C          67.5804   93.4795    9.8920 C.3     1  UNL1        0.0946
     42 O          65.3143   94.5974   10.4963 O.2     1  UNL1       -0.2751
     43 H          66.0966   91.2008   10.4623 H       1  UNL1        0.1495
@<TRIPOS>BOND
     1    25    26    1
     2    26    13    1
     3    13    14   ar
     4    14    15   ar
     5    15    16    1
     6    15    17   ar
     7    17    18   ar
     8    18    19    1
     9    18    20   ar
    10    20     1    1
    11     1     2   ar
    12     2     3   ar
    13     3     4   ar
    14     4     5   ar
    15     5     6   ar
    16     5     7    1
    17     7    37    1
    18    37    38    1
    19    38    39    1
    20    39    40   am
    21    40    41    1
    22    40    42    2
    23     7     8   am
    24     8     9    2
    25     8    10    1
    26    10    11    1
    27    10    27    1
    28    27    28   ar
    29    28    29   ar
    30    29    30   ar
    31    30    31   ar
    32    31    33    1
    33    33    34    1
    34    33    35    1
    35    33    36    1
    36    31    32   ar
    37    10    12    1
    38    20    13   ar
    39     6     1   ar
    40    32    27   ar
    41    12     4    1
    42    16    21    1
    43    16    22    1
    44    19    23    1
    45    19    24    1
    46    39    43    1
@<TRIPOS>MOLECULE
*****
 43 46 0 0 0
SMALL
GASTEIGER

@<TRIPOS>ATOM
      1 C          62.4599   86.0331   10.2740 C.ar    1  UNL1        0.0053
      2 C          62.5912   85.0666   11.4135 C.ar    1  UNL1        0.0033
      3 C          63.0011   85.5579   12.7702 C.ar    1  UNL1        0.0382
      4 C          63.2797   87.0158   12.9873 C.ar    1  UNL1        0.1529
      5 C          63.1483   87.9822   11.8477 C.ar    1  UNL1        0.0882
      6 C          62.7384   87.4909   10.4911 C.ar    1  UNL1        0.0181
      7 N          63.4268   89.4401   12.0648 N.am    1  UNL1       -0.2512
      8 C          63.8367   89.9314   13.4215 C.2     1  UNL1        0.2698
      9 O          64.1153   91.3893   13.6386 O.2     1  UNL1       -0.2704
     10 C          63.9681   88.9649   14.5611 C.3     1  UNL1        0.2197
     11 C          64.2275   88.4416   15.9427 C.3     1  UNL1        0.0579
     12 O          63.6896   87.5071   14.3440 O.3     1  UNL1       -0.4686
     13 C          60.7992   86.0658    8.2762 C.ar    1  UNL1        0.0645
     14 N          60.3892   85.5745    6.9195 N.ar    1  UNL1       -0.2183
     15 C          61.2301   84.5591    6.2039 C.ar    1  UNL1        0.2145
     16 N          60.8201   84.0679    4.8472 N.pl3   1  UNL1       -0.3274
     17 N          62.4809   84.0351    6.8449 N.ar    1  UNL1       -0.1995
     18 C          62.8908   84.5264    8.2017 C.ar    1  UNL1        0.1293
     19 N          64.1415   84.0024    8.8427 N.pl3   1  UNL1       -0.3425
     20 C          62.0499   85.5417    8.9173 C.ar    1  UNL1        0.0449
     21 H          59.9992   84.4118    4.4265 H       1  UNL1        0.1452
     22 H          61.3720   83.4015    4.3775 H       1  UNL1        0.1452
     23 H          64.6934   83.3360    8.3731 H       1  UNL1        0.1437
     24 H          64.4106   84.3249    9.7332 H       1  UNL1        0.1437
     25 C          59.4742   88.3006    8.2649 C.3     1  UNL1        0.0067
     26 C          59.9583   87.0811    8.9919 C.3     1  UNL1        0.0460
     27 C          64.3367   90.2410   15.2580 C.ar    1  UNL1        0.0219
     28 C          63.3915   90.8551   16.2477 C.ar    1  UNL1       -0.0005
     29 C          63.7602   92.1313   16.9446 C.ar    1  UNL1       -0.0003
     30 C          65.0739   92.7932   16.6519 C.ar    1  UNL1        0.0038
     31 C          66.0191   92.1790   15.6622 C.ar    1  UNL1        0.0712
     32 C          65.6506   90.9030   14.9653 C.ar    1  UNL1        0.0034
     33 C          67.3330   92.8410   15.3695 C.3     1  UNL1        0.4186
     34 F          68.6468   93.5030   15.0768 F       1  UNL1       -0.1659
     35 F          66.6188   93.9285   14.6231 F       1  UNL1       -0.1659
     36 F          68.0472   91.7535   16.1160 F       1  UNL1       -0.1659
     37 C          63.2955   90.4066   10.9253 C.3     1  UNL1        0.1196
     38 C          62.1222   90.3145    9.9952 C.3     1  UNL1        0.1113
     39 N          60.8318   90.9940   10.3462 N.am    1  UNL1       -0.3026
     40 C          59.9001   90.3667   11.3404 C.2     1  UNL1        0.2230
     41 C          58.6097   91.0462   11.6914 C.3     1  UNL1        0.0946
     42 O          60.2588   89.0599   11.9836 O.2     1  UNL1       -0.2751
     43 H          60.5964   91.8517    9.9241 H       1  UNL1        0.1495
@<TRIPOS>BOND
     1    25    26    1
     2    26    13    1
     3    13    14   ar
     4    14    15   ar
     5    15    16    1
     6    15    17   ar
     7    17    18   ar
     8    18    19    1
     9    18    20   ar
    10    20     1    1
    11     1     2   ar
    12     2     3   ar
    13     3     4   ar
    14     4     5   ar
    15     5     6   ar
    16     5     7    1
    17     7    37    1
    18    37    38    1
    19    38    39    1
    20    39    40   am
    21    40    41    1
    22    40    42    2
    23     7     8   am
    24     8     9    2
    25     8    10    1
    26    10    11    1
    27    10    27    1
    28    27    28   ar
    29    28    29   ar
    30    29    30   ar
    31    30    31   ar
    32    31    33    1
    33    33    34    1
    34    33    35    1
    35    33    36    1
    36    31    32   ar
    37    10    12    1
    38    20    13   ar
    39     6     1   ar
    40    32    27   ar
    41    12     4    1
    42    16    21    1
    43    16    22    1
    44    19    23    1
    45    19    24    1
    46    39    43    1
