@<TRIPOS>MOLECULE
*****
 42 47 0 0 0
SMALL
GASTEIGER

@<TRIPOS>ATOM
      1 C          59.3736   92.6621    2.5738 C.ar    1  UNL1        0.2400
      2 N          60.5297   93.0118    3.4631 N.ar    1  UNL1       -0.2090
      3 C          61.7674   93.6249    2.8780 C.ar    1  UNL1        0.1021
      4 C          62.1773   94.0203    1.4453 C.ar    1  UNL1        0.0207
      5 C          60.8020   93.4271    1.5283 C.ar    1  UNL1        0.0221
      6 C          59.4551   92.9254    1.0993 C.ar    1  UNL1        0.1178
      7 N          58.2990   92.5756    0.2099 N.pl3   1  UNL1       -0.2104
      8 S          57.4731   92.4200   -1.0325 S.O2    1  UNL1        0.0759
      9 O          56.0980   91.8804   -1.2936 O.2     1  UNL1       -0.1499
     10 O          56.7799   91.9352    0.2063 O.2     1  UNL1       -0.1499
     11 C          57.0770   92.4773   -2.4782 C.ar    1  UNL1        0.1527
     12 C          57.1585   92.7406   -3.9526 C.ar    1  UNL1        0.0293
     13 C          57.7078   93.1782   -5.2781 C.ar    1  UNL1        0.0822
     14 C          56.2848   92.5919   -5.3694 C.ar    1  UNL1        0.1468
     15 F          55.8887   92.6492   -6.8150 F       1  UNL1       -0.2039
     16 C          55.3339   92.0329   -4.3528 C.ar    1  UNL1        0.0608
     17 C          55.7300   91.9756   -2.9072 C.ar    1  UNL1        0.1611
     18 F          54.7792   91.4166   -1.8906 F       1  UNL1       -0.2027
     19 C          58.6586   93.7372   -6.2946 C.2     1  UNL1        0.2483
     20 O          57.8327   93.5816   -7.5370 O.2     1  UNL1       -0.2701
     21 N          59.8963   94.3502   -6.8797 N.am    1  UNL1       -0.2968
     22 C          61.2715   94.9434   -6.9627 C.3     1  UNL1        0.1181
     23 C          62.6185   95.4451   -6.5337 C.ar    1  UNL1        0.0166
     24 C          63.5693   96.0041   -7.5502 C.ar    1  UNL1        0.0962
     25 N          64.9162   96.5058   -7.1212 N.ar    1  UNL1       -0.2426
     26 C          65.3123   96.4485   -5.6756 C.ar    1  UNL1        0.0988
     27 C          64.3615   95.8895   -4.6590 C.ar    1  UNL1        0.0190
     28 C          63.0146   95.3878   -5.0881 C.ar    1  UNL1        0.0005
     29 C          64.9966   95.8932   -2.9563 C.ar    1  UNL1        0.0045
     30 C          66.2343   96.5062   -3.5414 C.ar    1  UNL1        0.0207
     31 C          67.3905   96.8560   -2.6520 C.ar    1  UNL1        0.0988
     32 N          67.3089   96.5927   -1.1775 N.ar    1  UNL1       -0.2438
     33 C          66.0712   95.9796   -0.5924 C.ar    1  UNL1        0.0813
     34 C          65.8129   95.6193    1.0267 C.ar    1  UNL1        0.0191
     35 C          64.6104   95.0098    1.6844 C.ar    1  UNL1        0.0016
     36 C          63.4149   94.6333    0.8602 C.ar    1  UNL1        0.0016
     37 C          64.3658   95.1923   -0.1564 C.ar    1  UNL1        0.0015
     38 C          64.9150   95.6299   -1.4818 C.ar    1  UNL1        0.0177
     39 H          57.6749   92.2087    0.8771 H       1  UNL1        0.1739
     40 H          59.6363   94.3878   -7.8285 H       1  UNL1        0.1501
     41 C          58.1140   91.6337    4.6000 C.3     1  UNL1        0.2543
     42 O          58.1359   92.0490    3.1588 O.3     1  UNL1       -0.4553
@<TRIPOS>BOND
     1    41    42    1
     2    42     1    1
     3     1     2   ar
     4     2     3   ar
     5     3     4   ar
     6     4     5   ar
     7     5     6   ar
     8     6     7    1
     9     7     8    1
    10     8     9    2
    11     8    10    2
    12     8    11    1
    13    11    12   ar
    14    12    13   ar
    15    13    14   ar
    16    14    15    1
    17    14    16   ar
    18    16    17   ar
    19    17    18    1
    20    13    19    1
    21    19    20    2
    22    19    21   am
    23    21    22    1
    24    22    23    1
    25    23    24   ar
    26    24    25   ar
    27    25    26   ar
    28    26    27   ar
    29    27    28   ar
    30    27    29    1
    31    29    30   ar
    32    30    31   ar
    33    31    32   ar
    34    32    33   ar
    35    33    34   ar
    36    34    35   ar
    37    35    36   ar
    38    36    37   ar
    39    37    38   ar
    40     6     1   ar
    41    17    11   ar
    42    28    23   ar
    43    38    29   ar
    44    36     4    1
    45    38    33   ar
    46     7    39    1
    47    21    40    1
