@<TRIPOS>MOLECULE
*****
 33 36 0 0 0
SMALL
GASTEIGER

@<TRIPOS>ATOM
      1 N          65.0041   90.1825   14.4022 N.ar    1  UNL1       -0.2874
      2 C          66.1126   90.9751   15.0290 C.ar    1  UNL1        0.0858
      3 C          66.7037   92.1448   14.2993 C.ar    1  UNL1        0.0705
      4 C          66.1862   92.5218   12.9428 C.ar    1  UNL1        0.1996
      5 O          66.7774   93.6915   12.2131 O.2     1  UNL1       -0.2864
      6 C          65.0778   91.7292   12.3160 C.ar    1  UNL1        0.0582
      7 C          64.5603   92.1062   10.9594 C.ar    1  UNL1        0.0340
      8 C          63.4519   91.3136   10.3326 C.ar    1  UNL1        0.1371
      9 F          62.9344   91.6906    8.9761 F       1  UNL1       -0.2045
     10 C          62.8607   90.1438   11.0623 C.ar    1  UNL1        0.0171
     11 C          63.3781   89.7668   12.4188 C.ar    1  UNL1        0.0720
     12 CL         62.7871   88.5972   13.1486 Cl      1  UNL1       -0.0810
     13 C          64.4867   90.5595   13.0457 C.ar    1  UNL1        0.0788
     14 N          64.5302   85.0470   15.0370 N.pl3   1  UNL1       -0.3408
     15 C          64.1760   86.4451   15.4493 C.ar    1  UNL1        0.1548
     16 N          64.7672   87.6148   14.7196 N.ar    1  UNL1       -0.2091
     17 C          64.4130   89.0128   15.1319 C.ar    1  UNL1        0.1769
     18 C          63.4676   89.2412   16.2739 C.ar    1  UNL1        0.1767
     19 F          63.1135   90.6393   16.6862 F       1  UNL1       -0.2009
     20 C          62.8765   88.0716   17.0036 C.ar    1  UNL1        0.0652
     21 C          63.2307   86.6734   16.5913 C.ar    1  UNL1        0.1734
     22 F          62.6396   85.5038   17.3210 F       1  UNL1       -0.2012
     23 H          65.1507   84.8972   14.2874 H       1  UNL1        0.1438
     24 H          64.1423   84.2794   15.5159 H       1  UNL1        0.1438
     25 C          61.7522   89.3512   10.4355 C.3     1  UNL1        0.0302
     26 C          61.6657   88.0471    9.6995 C.3     1  UNL1        0.0338
     27 C          60.1846   88.2302    9.5490 C.3     1  UNL1        0.1112
     28 O          59.0760   87.4376    8.9222 O.3     1  UNL1       -0.3844
     29 C          60.2711   89.5343   10.2851 C.3     1  UNL1        0.0338
     30 H          58.2358   87.9079    9.0396 H       1  UNL1        0.2103
     31 C          67.8122   92.9375   14.9261 C.2     1  UNL1        0.0774
     32 O          67.5237   93.8419   16.0875 O.co2   1  UNL1       -0.5444
     33 O          69.2092   92.8258   14.3915 O.co2   1  UNL1       -0.5444
@<TRIPOS>UNITY_ATOM_ATTR
32 1
charge -1
@<TRIPOS>BOND
     1    14    15    1
     2    15    16   ar
     3    16    17   ar
     4    17     1    1
     5     1     2   ar
     6     2     3   ar
     7     3    31    1
     8    31    32   ar
     9    31    33   ar
    10     3     4   ar
    11     4     5    2
    12     4     6   ar
    13     6     7   ar
    14     7     8   ar
    15     8     9    1
    16     8    10   ar
    17    25    10    1
    18    25    26    1
    19    26    27    1
    20    27    28    1
    21    27    29    1
    22    10    11   ar
    23    11    12    1
    24    11    13   ar
    25    17    18   ar
    26    18    19    1
    27    18    20   ar
    28    20    21   ar
    29    21    22    1
    30    21    15   ar
    31    13     1   ar
    32    13     6   ar
    33    29    25    1
    34    14    23    1
    35    14    24    1
    36    28    30    1
@<TRIPOS>MOLECULE
*****
 33 36 0 0 0
SMALL
GASTEIGER

@<TRIPOS>ATOM
      1 N          62.6302   87.7100   11.5281 N.ar    1  UNL1       -0.2874
      2 C          62.9419   89.1733   11.6342 C.ar    1  UNL1        0.0858
      3 C          63.7273   89.6900   12.8030 C.ar    1  UNL1        0.0705
      4 C          64.2010   88.7433   13.8657 C.ar    1  UNL1        0.1996
      5 O          64.9864   89.2601   15.0345 O.2     1  UNL1       -0.2864
      6 C          63.8893   87.2799   13.7596 C.ar    1  UNL1        0.0582
      7 C          64.3629   86.3332   14.8223 C.ar    1  UNL1        0.0340
      8 C          64.0512   84.8698   14.7163 C.ar    1  UNL1        0.1371
      9 F          64.5249   83.9231   15.7790 F       1  UNL1       -0.2045
     10 C          63.2658   84.3531   13.5474 C.ar    1  UNL1        0.0171
     11 C          62.7921   85.2998   12.4847 C.ar    1  UNL1        0.0720
     12 CL         62.0067   84.7831   11.3159 Cl      1  UNL1       -0.0810
     13 C          63.1038   86.7633   12.5908 C.ar    1  UNL1        0.0788
     14 N          62.4102   85.0076    7.0954 N.pl3   1  UNL1       -0.3408
     15 C          61.7348   85.8420    8.1429 C.ar    1  UNL1        0.1548
     16 N          62.5202   86.3588    9.3117 N.ar    1  UNL1       -0.2091
     17 C          61.8447   87.1932   10.3593 C.ar    1  UNL1        0.1769
     18 C          60.3838   87.5110   10.2380 C.ar    1  UNL1        0.1767
     19 F          59.7083   88.3455   11.2856 F       1  UNL1       -0.2009
     20 C          59.5983   86.9943    9.0693 C.ar    1  UNL1        0.0652
     21 C          60.2738   86.1598    8.0217 C.ar    1  UNL1        0.1734
     22 F          59.4884   85.6431    6.8529 F       1  UNL1       -0.2012
     23 H          63.3691   84.7990    7.1750 H       1  UNL1        0.1438
     24 H          61.8947   84.6684    6.3283 H       1  UNL1        0.1438
     25 C          62.9540   82.8897   13.4413 C.3     1  UNL1        0.0302
     26 C          63.4339   81.7631   12.5750 C.3     1  UNL1        0.0338
     27 C          62.5132   80.8201   13.2913 C.3     1  UNL1        0.1112
     28 O          62.2014   79.3567   13.1853 O.3     1  UNL1       -0.3844
     29 C          62.0333   81.9467   14.1576 C.3     1  UNL1        0.0338
     30 H          61.5304   79.1204   13.8447 H       1  UNL1        0.2103
     31 C          64.0391   91.1535   12.9091 C.2     1  UNL1        0.0774
     32 O          63.9070   91.8547   14.2285 O.co2   1  UNL1       -0.5444
     33 O          64.4829   91.9156   11.6958 O.co2   1  UNL1       -0.5444
@<TRIPOS>UNITY_ATOM_ATTR
32 1
charge -1
@<TRIPOS>BOND
     1    14    15    1
     2    15    16   ar
     3    16    17   ar
     4    17     1    1
     5     1     2   ar
     6     2     3   ar
     7     3    31    1
     8    31    32   ar
     9    31    33   ar
    10     3     4   ar
    11     4     5    2
    12     4     6   ar
    13     6     7   ar
    14     7     8   ar
    15     8     9    1
    16     8    10   ar
    17    25    10    1
    18    25    26    1
    19    26    27    1
    20    27    28    1
    21    27    29    1
    22    10    11   ar
    23    11    12    1
    24    11    13   ar
    25    17    18   ar
    26    18    19    1
    27    18    20   ar
    28    20    21   ar
    29    21    22    1
    30    21    15   ar
    31    13     1   ar
    32    13     6   ar
    33    29    25    1
    34    14    23    1
    35    14    24    1
    36    28    30    1
@<TRIPOS>MOLECULE
*****
 33 36 0 0 0
SMALL
GASTEIGER

@<TRIPOS>ATOM
      1 N          62.0193   86.3942   11.0811 N.ar    1  UNL1       -0.2874
      2 C          61.1262   85.8347   10.0137 C.ar    1  UNL1        0.0858
      3 C          60.5263   86.7457    8.9842 C.ar    1  UNL1        0.0705
      4 C          60.8193   88.2163    9.0221 C.ar    1  UNL1        0.1996
      5 O          60.2193   89.1274    7.9925 O.2     1  UNL1       -0.2864
      6 C          61.7124   88.7759   10.0894 C.ar    1  UNL1        0.0582
      7 C          62.0055   90.2465   10.1273 C.ar    1  UNL1        0.0340
      8 C          62.8986   90.8060   11.1947 C.ar    1  UNL1        0.1371
      9 F          63.1917   92.2766   11.2325 F       1  UNL1       -0.2045
     10 C          63.4986   89.8949   12.2242 C.ar    1  UNL1        0.0171
     11 C          63.2055   88.4243   12.1864 C.ar    1  UNL1        0.0720
     12 CL         63.8055   87.5132   13.2159 Cl      1  UNL1       -0.0810
     13 C          62.3124   87.8648   11.1189 C.ar    1  UNL1        0.0788
     14 N          62.3622   84.7782   16.0077 N.pl3   1  UNL1       -0.3408
     15 C          62.7908   84.6751   14.5739 C.ar    1  UNL1        0.1548
     16 N          62.1908   85.5862   13.5444 N.ar    1  UNL1       -0.2091
     17 C          62.6194   85.4831   12.1106 C.ar    1  UNL1        0.1769
     18 C          63.6480   84.4689   11.7064 C.ar    1  UNL1        0.1767
     19 F          64.0766   84.3659   10.2726 F       1  UNL1       -0.2009
     20 C          64.2480   83.5579   12.7359 C.ar    1  UNL1        0.0652
     21 C          63.8194   83.6609   14.1697 C.ar    1  UNL1        0.1734
     22 F          64.4195   82.7499   15.1992 F       1  UNL1       -0.2012
     23 H          61.6871   85.4438   16.2730 H       1  UNL1        0.1438
     24 H          62.7560   84.1802   16.6834 H       1  UNL1        0.1438
     25 C          64.3917   90.4544   13.2916 C.3     1  UNL1        0.0302
     26 C          64.4287   90.3815   14.7894 C.3     1  UNL1        0.0338
     27 C          65.6547   91.2457   14.8011 C.3     1  UNL1        0.1112
     28 O          66.5479   91.8053   15.8685 O.3     1  UNL1       -0.3844
     29 C          65.6177   91.3186   13.3034 C.3     1  UNL1        0.0338
     30 H          67.2529   92.3299   15.4579 H       1  UNL1        0.2103
     31 C          59.6331   86.1862    7.9168 C.2     1  UNL1        0.0774
     32 O          60.1693   85.1811    6.9410 O.co2   1  UNL1       -0.5444
     33 O          58.2038   86.6319    7.8251 O.co2   1  UNL1       -0.5444
@<TRIPOS>UNITY_ATOM_ATTR
32 1
charge -1
@<TRIPOS>BOND
     1    14    15    1
     2    15    16   ar
     3    16    17   ar
     4    17     1    1
     5     1     2   ar
     6     2     3   ar
     7     3    31    1
     8    31    32   ar
     9    31    33   ar
    10     3     4   ar
    11     4     5    2
    12     4     6   ar
    13     6     7   ar
    14     7     8   ar
    15     8     9    1
    16     8    10   ar
    17    25    10    1
    18    25    26    1
    19    26    27    1
    20    27    28    1
    21    27    29    1
    22    10    11   ar
    23    11    12    1
    24    11    13   ar
    25    17    18   ar
    26    18    19    1
    27    18    20   ar
    28    20    21   ar
    29    21    22    1
    30    21    15   ar
    31    13     1   ar
    32    13     6   ar
    33    29    25    1
    34    14    23    1
    35    14    24    1
    36    28    30    1
@<TRIPOS>MOLECULE
*****
 33 36 0 0 0
SMALL
GASTEIGER

@<TRIPOS>ATOM
      1 N          64.3029   88.6005   13.9694 N.ar    1  UNL1       -0.2874
      2 C          65.1361   89.5039   14.8294 C.ar    1  UNL1        0.0858
      3 C          65.3611   90.9297   14.4216 C.ar    1  UNL1        0.0705
      4 C          64.7528   91.4521   13.1539 C.ar    1  UNL1        0.1996
      5 O          64.9778   92.8781   12.7461 O.2     1  UNL1       -0.2864
      6 C          63.9196   90.5487   12.2939 C.ar    1  UNL1        0.0582
      7 C          63.3114   91.0711   11.0262 C.ar    1  UNL1        0.0340
      8 C          62.4782   90.1677   10.1663 C.ar    1  UNL1        0.1371
      9 F          61.8699   90.6901    8.8986 F       1  UNL1       -0.2045
     10 C          62.2531   88.7418   10.5740 C.ar    1  UNL1        0.0171
     11 C          62.8614   88.2194   11.8418 C.ar    1  UNL1        0.0720
     12 CL         62.6364   86.7935   12.2495 Cl      1  UNL1       -0.0810
     13 C          63.6947   89.1229   12.7017 C.ar    1  UNL1        0.0788
     14 N          64.6938   83.5174   12.9645 N.pl3   1  UNL1       -0.3408
     15 C          64.2734   84.6330   13.8747 C.ar    1  UNL1        0.1548
     16 N          64.4984   86.0589   13.4670 N.ar    1  UNL1       -0.2091
     17 C          64.0779   87.1745   14.3772 C.ar    1  UNL1        0.1769
     18 C          63.4324   86.8643   15.6952 C.ar    1  UNL1        0.1767
     19 F          63.0119   87.9801   16.6054 F       1  UNL1       -0.2009
     20 C          63.2074   85.4385   16.1030 C.ar    1  UNL1        0.0652
     21 C          63.6279   84.3228   15.1927 C.ar    1  UNL1        0.1734
     22 F          63.4029   82.8970   15.6005 F       1  UNL1       -0.2012
     23 H          65.1175   83.7210   12.0995 H       1  UNL1        0.1438
     24 H          64.5461   82.5815   13.2321 H       1  UNL1        0.1438
     25 C          61.4199   87.8384    9.7141 C.3     1  UNL1        0.0302
     26 C          59.9726   87.7836    9.3240 C.3     1  UNL1        0.0338
     27 C          60.2415   86.5607    8.4979 C.3     1  UNL1        0.1112
     28 O          59.4083   85.6572    7.6379 O.3     1  UNL1       -0.3844
     29 C          61.6889   86.6156    8.8880 C.3     1  UNL1        0.0338
     30 H          59.9687   84.9590    7.2647 H       1  UNL1        0.2103
     31 C          66.1943   91.8332   15.2815 C.2     1  UNL1        0.0774
     32 O          65.5319   92.8483   16.1652 O.co2   1  UNL1       -0.5444
     33 O          67.6900   91.7216   15.2578 O.co2   1  UNL1       -0.5444
@<TRIPOS>UNITY_ATOM_ATTR
32 1
charge -1
@<TRIPOS>BOND
     1    14    15    1
     2    15    16   ar
     3    16    17   ar
     4    17     1    1
     5     1     2   ar
     6     2     3   ar
     7     3    31    1
     8    31    32   ar
     9    31    33   ar
    10     3     4   ar
    11     4     5    2
    12     4     6   ar
    13     6     7   ar
    14     7     8   ar
    15     8     9    1
    16     8    10   ar
    17    25    10    1
    18    25    26    1
    19    26    27    1
    20    27    28    1
    21    27    29    1
    22    10    11   ar
    23    11    12    1
    24    11    13   ar
    25    17    18   ar
    26    18    19    1
    27    18    20   ar
    28    20    21   ar
    29    21    22    1
    30    21    15   ar
    31    13     1   ar
    32    13     6   ar
    33    29    25    1
    34    14    23    1
    35    14    24    1
    36    28    30    1
@<TRIPOS>MOLECULE
*****
 33 36 0 0 0
SMALL
GASTEIGER

@<TRIPOS>ATOM
      1 N          66.6409   93.1076   12.5465 N.ar    1  UNL1       -0.2874
      2 C          67.6296   93.5324   13.5914 C.ar    1  UNL1        0.0858
      3 C          67.4731   93.0623   15.0072 C.ar    1  UNL1        0.0705
      4 C          66.3278   92.1675   15.3780 C.ar    1  UNL1        0.1996
      5 O          66.1713   91.6974   16.7939 O.2     1  UNL1       -0.2864
      6 C          65.3390   91.7427   14.3331 C.ar    1  UNL1        0.0582
      7 C          64.1937   90.8479   14.7040 C.ar    1  UNL1        0.0340
      8 C          63.2049   90.4231   13.6591 C.ar    1  UNL1        0.1371
      9 F          62.0596   89.5283   14.0300 F       1  UNL1       -0.2045
     10 C          63.3615   90.8932   12.2432 C.ar    1  UNL1        0.0171
     11 C          64.5068   91.7880   11.8723 C.ar    1  UNL1        0.0720
     12 CL         64.6633   92.2581   10.4566 Cl      1  UNL1       -0.0810
     13 C          65.4956   92.2128   12.9173 C.ar    1  UNL1        0.0788
     14 N          65.4884   96.4907    8.7746 N.pl3   1  UNL1       -0.3408
     15 C          66.2212   95.2692    9.2447 C.ar    1  UNL1        0.1548
     16 N          66.0646   94.7991   10.6605 N.ar    1  UNL1       -0.2091
     17 C          66.7974   93.5777   11.1306 C.ar    1  UNL1        0.1769
     18 C          67.6867   92.8262   10.1848 C.ar    1  UNL1        0.1767
     19 F          68.4195   91.6046   10.6550 F       1  UNL1       -0.2009
     20 C          67.8432   93.2962    8.7690 C.ar    1  UNL1        0.0652
     21 C          67.1105   94.5177    8.2989 C.ar    1  UNL1        0.1734
     22 F          67.2670   94.9877    6.8831 F       1  UNL1       -0.2012
     23 H          64.9047   96.9839    9.3953 H       1  UNL1        0.1438
     24 H          65.5911   96.7992    7.8453 H       1  UNL1        0.1438
     25 C          62.3727   90.4684   11.1983 C.3     1  UNL1        0.0302
     26 C          62.4191   89.5728    9.9959 C.3     1  UNL1        0.0338
     27 C          60.9744   89.8677    9.7205 C.3     1  UNL1        0.1112
     28 O          59.9855   89.4429    8.6756 O.3     1  UNL1       -0.3844
     29 C          60.9280   90.7633   10.9229 C.3     1  UNL1        0.0338
     30 H          59.1296   89.8646    8.8500 H       1  UNL1        0.2103
     31 C          68.4619   93.4871   16.0522 C.2     1  UNL1        0.0774
     32 O          69.2968   92.4592   16.7565 O.co2   1  UNL1       -0.5444
     33 O          68.6156   94.9398   16.3927 O.co2   1  UNL1       -0.5444
@<TRIPOS>UNITY_ATOM_ATTR
32 1
charge -1
@<TRIPOS>BOND
     1    14    15    1
     2    15    16   ar
     3    16    17   ar
     4    17     1    1
     5     1     2   ar
     6     2     3   ar
     7     3    31    1
     8    31    32   ar
     9    31    33   ar
    10     3     4   ar
    11     4     5    2
    12     4     6   ar
    13     6     7   ar
    14     7     8   ar
    15     8     9    1
    16     8    10   ar
    17    25    10    1
    18    25    26    1
    19    26    27    1
    20    27    28    1
    21    27    29    1
    22    10    11   ar
    23    11    12    1
    24    11    13   ar
    25    17    18   ar
    26    18    19    1
    27    18    20   ar
    28    20    21   ar
    29    21    22    1
    30    21    15   ar
    31    13     1   ar
    32    13     6   ar
    33    29    25    1
    34    14    23    1
    35    14    24    1
    36    28    30    1
@<TRIPOS>MOLECULE
*****
 33 36 0 0 0
SMALL
GASTEIGER

@<TRIPOS>ATOM
      1 N          62.5589   84.4932   11.8619 N.ar    1  UNL1       -0.2874
      2 C          62.4073   83.0458   12.2251 C.ar    1  UNL1        0.0858
      3 C          62.7978   82.5711   13.5934 C.ar    1  UNL1        0.0705
      4 C          63.3398   83.5438   14.5984 C.ar    1  UNL1        0.1996
      5 O          63.7303   83.0690   15.9667 O.2     1  UNL1       -0.2864
      6 C          63.4914   84.9912   14.2351 C.ar    1  UNL1        0.0582
      7 C          64.0335   85.9639   15.2401 C.ar    1  UNL1        0.0340
      8 C          64.1851   87.4113   14.8768 C.ar    1  UNL1        0.1371
      9 F          64.7272   88.3840   15.8818 F       1  UNL1       -0.2045
     10 C          63.7946   87.8861   13.5085 C.ar    1  UNL1        0.0171
     11 C          63.2526   86.9134   12.5035 C.ar    1  UNL1        0.0720
     12 CL         62.8621   87.3881   11.1353 Cl      1  UNL1       -0.0810
     13 C          63.1010   85.4659   12.8669 C.ar    1  UNL1        0.0788
     14 N          59.2712   87.0482    8.7532 N.pl3   1  UNL1       -0.3408
     15 C          60.5246   86.2455    8.9392 C.ar    1  UNL1        0.1548
     16 N          60.9150   85.7707   10.3076 N.ar    1  UNL1       -0.2091
     17 C          62.1684   84.9680   10.4936 C.ar    1  UNL1        0.1769
     18 C          63.0314   84.6400    9.3113 C.ar    1  UNL1        0.1767
     19 F          64.2848   83.8372    9.4974 F       1  UNL1       -0.2009
     20 C          62.6410   85.1147    7.9430 C.ar    1  UNL1        0.0652
     21 C          61.3875   85.9175    7.7570 C.ar    1  UNL1        0.1734
     22 F          60.9971   86.3922    6.3887 F       1  UNL1       -0.2012
     23 H          58.7048   87.2634    9.5292 H       1  UNL1        0.1438
     24 H          59.0149   87.3598    7.8552 H       1  UNL1        0.1438
     25 C          63.9462   89.3335   13.1453 C.3     1  UNL1        0.0302
     26 C          63.3504   90.2337   12.1038 C.3     1  UNL1        0.0338
     27 C          64.1606   91.3804   12.6316 C.3     1  UNL1        0.1112
     28 O          64.3123   92.8279   12.2683 O.3     1  UNL1       -0.3844
     29 C          64.7564   90.4802   13.6730 C.3     1  UNL1        0.0338
     30 H          64.9511   93.2462   12.8665 H       1  UNL1        0.2103
     31 C          62.6462   81.1236   13.9567 C.2     1  UNL1        0.0774
     32 O          61.2916   80.4802   13.9247 O.co2   1  UNL1       -0.5444
     33 O          63.8492   80.3196   14.3520 O.co2   1  UNL1       -0.5444
@<TRIPOS>UNITY_ATOM_ATTR
32 1
charge -1
@<TRIPOS>BOND
     1    14    15    1
     2    15    16   ar
     3    16    17   ar
     4    17     1    1
     5     1     2   ar
     6     2     3   ar
     7     3    31    1
     8    31    32   ar
     9    31    33   ar
    10     3     4   ar
    11     4     5    2
    12     4     6   ar
    13     6     7   ar
    14     7     8   ar
    15     8     9    1
    16     8    10   ar
    17    25    10    1
    18    25    26    1
    19    26    27    1
    20    27    28    1
    21    27    29    1
    22    10    11   ar
    23    11    12    1
    24    11    13   ar
    25    17    18   ar
    26    18    19    1
    27    18    20   ar
    28    20    21   ar
    29    21    22    1
    30    21    15   ar
    31    13     1   ar
    32    13     6   ar
    33    29    25    1
    34    14    23    1
    35    14    24    1
    36    28    30    1
