@<TRIPOS>MOLECULE
*****
 43 46 0 0 0
SMALL
GASTEIGER

@<TRIPOS>ATOM
      1 C          65.3904   90.7759   14.0929 C.ar    1  UNL1        0.0053
      2 C          65.0903   89.4963   14.8159 C.ar    1  UNL1        0.0033
      3 C          64.1552   88.4932   14.2083 C.ar    1  UNL1        0.0382
      4 C          63.5201   88.7696   12.8777 C.ar    1  UNL1        0.1529
      5 C          63.8202   90.0492   12.1548 C.ar    1  UNL1        0.0882
      6 C          64.7553   91.0523   12.7624 C.ar    1  UNL1        0.0181
      7 N          63.1851   90.3256   10.8243 N.am    1  UNL1       -0.2512
      8 C          62.2500   89.3225   10.2167 C.2     1  UNL1        0.2698
      9 O          61.6149   89.5989    8.8862 O.2     1  UNL1       -0.2704
     10 C          61.9499   88.0428   10.9396 C.3     1  UNL1        0.2199
     11 C          61.3579   86.6969   11.2363 C.3     1  UNL1        0.0579
     12 O          62.5850   87.7664   12.2702 O.3     1  UNL1       -0.4686
     13 C          67.6559   92.0473   14.0616 C.ar    1  UNL1        0.0645
     14 N          68.5911   93.0505   14.6691 N.ar    1  UNL1       -0.2183
     15 C          68.1959   93.7855   15.9156 C.ar    1  UNL1        0.2145
     16 N          69.1310   94.7887   16.5231 N.pl3   1  UNL1       -0.3274
     17 N          66.8655   93.5173   16.5545 N.ar    1  UNL1       -0.1995
     18 C          65.9303   92.5141   15.9469 C.ar    1  UNL1        0.1293
     19 N          64.5999   92.2459   16.5858 N.pl3   1  UNL1       -0.3425
     20 C          66.3255   91.7791   14.7005 C.ar    1  UNL1        0.0449
     21 H          70.0042   94.9647   16.1038 H       1  UNL1        0.1452
     22 H          68.8716   95.2711   17.3412 H       1  UNL1        0.1452
     23 H          64.3405   92.7283   17.4039 H       1  UNL1        0.1437
     24 H          63.9862   91.5875   16.1870 H       1  UNL1        0.1437
     25 C          68.3314   92.0728   11.5530 C.3     1  UNL1        0.0067
     26 C          68.0511   91.3123   12.8152 C.3     1  UNL1        0.0460
     27 C          61.1092   87.8518    9.7122 C.ar    1  UNL1        0.0264
     28 C          61.1170   86.5342    8.9954 C.ar    1  UNL1        0.0293
     29 C          60.2763   86.3432    7.7678 C.ar    1  UNL1        0.1422
     30 F          60.2841   85.0255    7.0511 F       1  UNL1       -0.2041
     31 C          59.4279   87.4698    7.2571 C.ar    1  UNL1        0.0592
     32 C          59.4201   88.7874    7.9739 C.ar    1  UNL1        0.1422
     33 F          58.5716   89.9140    7.4632 F       1  UNL1       -0.2041
     34 C          60.2607   88.9785    9.2014 C.ar    1  UNL1        0.0293
     35 C          63.4851   91.6052   10.1014 C.3     1  UNL1        0.1196
     36 C          64.8450   92.2284   10.2128 C.3     1  UNL1        0.1114
     37 N          64.9833   93.6492   10.6737 N.am    1  UNL1       -0.3006
     38 C          66.0663   94.5192   10.1078 C.2     1  UNL1        0.2524
     39 O          67.0110   93.9684    9.0810 O.2     1  UNL1       -0.2724
     40 H          64.3633   94.0106   11.3477 H       1  UNL1        0.1496
     41 C          66.2047   95.9398   10.5687 C.3     1  UNL1        0.2229
     42 O          65.7065   96.3400   11.9258 O.3     1  UNL1       -0.3737
     43 H          64.7408   96.2535   11.9542 H       1  UNL1        0.2110
@<TRIPOS>BOND
     1    25    26    1
     2    26    13    1
     3    13    14   ar
     4    14    15   ar
     5    15    16    1
     6    15    17   ar
     7    17    18   ar
     8    18    19    1
     9    18    20   ar
    10    20     1    1
    11     1     2   ar
    12     2     3   ar
    13     3     4   ar
    14     4     5   ar
    15     5     6   ar
    16     5     7    1
    17     7    35    1
    18    35    36    1
    19    36    37    1
    20    37    38   am
    21    38    39    2
    22    38    41    1
    23    41    42    1
    24     7     8   am
    25     8     9    2
    26     8    10    1
    27    10    11    1
    28    10    27    1
    29    27    28   ar
    30    28    29   ar
    31    29    30    1
    32    29    31   ar
    33    31    32   ar
    34    32    33    1
    35    32    34   ar
    36    10    12    1
    37    20    13   ar
    38     6     1   ar
    39    34    27   ar
    40    12     4    1
    41    16    21    1
    42    16    22    1
    43    19    23    1
    44    19    24    1
    45    37    40    1
    46    42    43    1
@<TRIPOS>MOLECULE
*****
 43 46 0 0 0
SMALL
GASTEIGER

@<TRIPOS>ATOM
      1 C          64.2293   89.3788   13.2116 C.ar    1  UNL1        0.0053
      2 C          64.5541   89.1551   14.6588 C.ar    1  UNL1        0.0033
      3 C          64.3330   87.8065   15.2772 C.ar    1  UNL1        0.0382
      4 C          63.7870   86.6818   14.4485 C.ar    1  UNL1        0.1529
      5 C          63.4623   86.9055   13.0013 C.ar    1  UNL1        0.0882
      6 C          63.6834   88.2541   12.3829 C.ar    1  UNL1        0.0181
      7 N          62.9163   85.7807   12.1725 N.am    1  UNL1       -0.2512
      8 C          62.6952   84.4322   12.7910 C.2     1  UNL1        0.2698
      9 O          62.1493   83.3074   11.9622 O.2     1  UNL1       -0.2704
     10 C          63.0200   84.2084   14.2382 C.3     1  UNL1        0.2199
     11 C          63.1737   83.5097   15.5566 C.3     1  UNL1        0.0579
     12 O          63.5659   85.3332   15.0670 O.3     1  UNL1       -0.4686
     13 C          65.3070   91.7415   13.2916 C.ar    1  UNL1        0.0645
     14 N          65.5282   93.0901   12.6732 N.ar    1  UNL1       -0.2183
     15 C          64.8927   93.4246   11.3562 C.ar    1  UNL1        0.2145
     16 N          65.1139   94.7731   10.7378 N.pl3   1  UNL1       -0.3274
     17 N          64.0361   92.4105   10.6577 N.ar    1  UNL1       -0.1995
     18 C          63.8150   91.0619   11.2762 C.ar    1  UNL1        0.1293
     19 N          62.9584   90.0478   10.5777 N.pl3   1  UNL1       -0.3425
     20 C          64.4504   90.7274   12.5931 C.ar    1  UNL1        0.0449
     21 H          65.6761   95.4387   11.1962 H       1  UNL1        0.1452
     22 H          64.6968   94.9926    9.8734 H       1  UNL1        0.1452
     23 H          62.5414   90.2673    9.7134 H       1  UNL1        0.1437
     24 H          62.8133   89.1627   10.9836 H       1  UNL1        0.1437
     25 C          67.4097   91.6412   14.8144 C.3     1  UNL1        0.0067
     26 C          65.9425   91.4070   14.6086 C.3     1  UNL1        0.0460
     27 C          62.5275   82.8410   13.8673 C.ar    1  UNL1        0.0264
     28 C          61.2814   82.2956   14.4996 C.ar    1  UNL1        0.0293
     29 C          60.7888   80.9282   14.1286 C.ar    1  UNL1        0.1422
     30 F          59.5426   80.3828   14.7610 F       1  UNL1       -0.2041
     31 C          61.5424   80.1061   13.1256 C.ar    1  UNL1        0.0592
     32 C          62.7885   80.6515   12.4933 C.ar    1  UNL1        0.1422
     33 F          63.5421   79.8294   11.4901 F       1  UNL1       -0.2041
     34 C          63.2811   82.0189   12.8641 C.ar    1  UNL1        0.0293
     35 C          62.5916   86.0045   10.7253 C.3     1  UNL1        0.1196
     36 C          61.2553   86.5625   10.3341 C.3     1  UNL1        0.1114
     37 N          60.3932   87.2344   11.3615 N.am    1  UNL1       -0.3006
     38 C          59.9054   88.6341   11.1318 C.2     1  UNL1        0.2524
     39 O          60.2796   89.3620    9.8747 O.2     1  UNL1       -0.2724
     40 H          60.1476   86.7567   12.1865 H       1  UNL1        0.1496
     41 C          59.0433   89.3060   12.1591 C.3     1  UNL1        0.2229
     42 O          58.5572   88.5351   13.3505 O.3     1  UNL1       -0.3737
     43 H          57.9487   87.8384   13.0585 H       1  UNL1        0.2110
@<TRIPOS>BOND
     1    25    26    1
     2    26    13    1
     3    13    14   ar
     4    14    15   ar
     5    15    16    1
     6    15    17   ar
     7    17    18   ar
     8    18    19    1
     9    18    20   ar
    10    20     1    1
    11     1     2   ar
    12     2     3   ar
    13     3     4   ar
    14     4     5   ar
    15     5     6   ar
    16     5     7    1
    17     7    35    1
    18    35    36    1
    19    36    37    1
    20    37    38   am
    21    38    39    2
    22    38    41    1
    23    41    42    1
    24     7     8   am
    25     8     9    2
    26     8    10    1
    27    10    11    1
    28    10    27    1
    29    27    28   ar
    30    28    29   ar
    31    29    30    1
    32    29    31   ar
    33    31    32   ar
    34    32    33    1
    35    32    34   ar
    36    10    12    1
    37    20    13   ar
    38     6     1   ar
    39    34    27   ar
    40    12     4    1
    41    16    21    1
    42    16    22    1
    43    19    23    1
    44    19    24    1
    45    37    40    1
    46    42    43    1
@<TRIPOS>MOLECULE
*****
 43 46 0 0 0
SMALL
GASTEIGER

@<TRIPOS>ATOM
      1 C          65.2000   90.4709   14.1385 C.ar    1  UNL1        0.0053
      2 C          64.9880   89.1841   14.8794 C.ar    1  UNL1        0.0033
      3 C          64.1392   88.1034   14.2780 C.ar    1  UNL1        0.0382
      4 C          63.5024   88.3096   12.9357 C.ar    1  UNL1        0.1529
      5 C          63.7143   89.5965   12.1947 C.ar    1  UNL1        0.0882
      6 C          64.5631   90.6771   12.7961 C.ar    1  UNL1        0.0181
      7 N          63.0774   89.8027   10.8524 N.am    1  UNL1       -0.2512
      8 C          62.2286   88.7221   10.2510 C.2     1  UNL1        0.2698
      9 O          61.5918   88.9283    8.9087 O.2     1  UNL1       -0.2704
     10 C          62.0167   87.4351   10.9920 C.3     1  UNL1        0.2199
     11 C          61.5241   86.0532   11.3044 C.3     1  UNL1        0.0579
     12 O          62.6535   87.2289   12.3343 O.3     1  UNL1       -0.4686
     13 C          67.3361   91.9487   14.0801 C.ar    1  UNL1        0.0645
     14 N          68.1849   93.0293   14.6814 N.ar    1  UNL1       -0.2183
     15 C          67.7465   93.7130   15.9426 C.ar    1  UNL1        0.2145
     16 N          68.5953   94.7937   16.5439 N.pl3   1  UNL1       -0.3274
     17 N          66.4592   93.3160   16.6023 N.ar    1  UNL1       -0.1995
     18 C          65.6103   92.2353   16.0009 C.ar    1  UNL1        0.1293
     19 N          64.3231   91.8382   16.6607 N.pl3   1  UNL1       -0.3425
     20 C          66.0488   91.5516   14.7399 C.ar    1  UNL1        0.0449
     21 H          69.4402   95.0543   16.1108 H       1  UNL1        0.1452
     22 H          68.3075   95.2424   17.3716 H       1  UNL1        0.1452
     23 H          64.0353   92.2869   17.4884 H       1  UNL1        0.1437
     24 H          63.7660   91.1289   16.2660 H       1  UNL1        0.1437
     25 C          68.9835   91.7575   12.0802 C.3     1  UNL1        0.0067
     26 C          67.7745   91.2650   12.8189 C.3     1  UNL1        0.0460
     27 C          61.2088   87.1614    9.7582 C.ar    1  UNL1        0.0264
     28 C          61.6476   86.0987    8.7948 C.ar    1  UNL1        0.0293
     29 C          60.8396   85.8250    7.5609 C.ar    1  UNL1        0.1422
     30 F          61.2785   84.7622    6.5976 F       1  UNL1       -0.2041
     31 C          59.5929   86.6140    7.2904 C.ar    1  UNL1        0.0592
     32 C          59.1541   87.6767    8.2538 C.ar    1  UNL1        0.1422
     33 F          57.9074   88.4657    7.9833 F       1  UNL1       -0.2041
     34 C          59.9620   87.9504    9.4877 C.ar    1  UNL1        0.0293
     35 C          63.2894   91.0896   10.1115 C.3     1  UNL1        0.1196
     36 C          64.1856   92.1467   10.6854 C.3     1  UNL1        0.1114
     37 N          65.2205   92.8031    9.8204 N.am    1  UNL1       -0.3006
     38 C          66.1570   93.8162   10.4092 C.2     1  UNL1        0.2524
     39 O          66.0587   94.1727   11.8629 O.2     1  UNL1       -0.2724
     40 H          65.2850   92.5691    8.8663 H       1  UNL1        0.1496
     41 C          67.1919   94.4726    9.5443 C.3     1  UNL1        0.2229
     42 O          68.6401   94.1174    9.7068 O.3     1  UNL1       -0.3737
     43 H          68.9487   94.4091   10.5789 H       1  UNL1        0.2110
@<TRIPOS>BOND
     1    25    26    1
     2    26    13    1
     3    13    14   ar
     4    14    15   ar
     5    15    16    1
     6    15    17   ar
     7    17    18   ar
     8    18    19    1
     9    18    20   ar
    10    20     1    1
    11     1     2   ar
    12     2     3   ar
    13     3     4   ar
    14     4     5   ar
    15     5     6   ar
    16     5     7    1
    17     7    35    1
    18    35    36    1
    19    36    37    1
    20    37    38   am
    21    38    39    2
    22    38    41    1
    23    41    42    1
    24     7     8   am
    25     8     9    2
    26     8    10    1
    27    10    11    1
    28    10    27    1
    29    27    28   ar
    30    28    29   ar
    31    29    30    1
    32    29    31   ar
    33    31    32   ar
    34    32    33    1
    35    32    34   ar
    36    10    12    1
    37    20    13   ar
    38     6     1   ar
    39    34    27   ar
    40    12     4    1
    41    16    21    1
    42    16    22    1
    43    19    23    1
    44    19    24    1
    45    37    40    1
    46    42    43    1
@<TRIPOS>MOLECULE
*****
 43 46 0 0 0
SMALL
GASTEIGER

@<TRIPOS>ATOM
      1 C          64.0944   89.3006   13.1122 C.ar    1  UNL1        0.0053
      2 C          64.3419   89.1159   14.5800 C.ar    1  UNL1        0.0033
      3 C          64.1009   87.7804   15.2190 C.ar    1  UNL1        0.0382
      4 C          63.6124   86.6296   14.3901 C.ar    1  UNL1        0.1529
      5 C          63.3649   86.8143   12.9223 C.ar    1  UNL1        0.0882
      6 C          63.6058   88.1498   12.2833 C.ar    1  UNL1        0.0181
      7 N          62.8763   85.6635   12.0934 N.am    1  UNL1       -0.2512
      8 C          62.6353   84.3280   12.7323 C.2     1  UNL1        0.2698
      9 O          62.1468   83.1772   11.9035 O.2     1  UNL1       -0.2704
     10 C          62.8829   84.1432   14.2002 C.3     1  UNL1        0.2199
     11 C          62.9715   83.4787   15.5421 C.3     1  UNL1        0.0579
     12 O          63.3714   85.2940   15.0291 O.3     1  UNL1       -0.4686
     13 C          65.2282   91.6380   13.1433 C.ar    1  UNL1        0.0645
     14 N          65.4692   92.9735   12.5044 N.ar    1  UNL1       -0.2183
     15 C          64.8173   93.3072   11.1952 C.ar    1  UNL1        0.2145
     16 N          65.0583   94.6427   10.5563 N.pl3   1  UNL1       -0.3274
     17 N          63.9244   92.3054   10.5251 N.ar    1  UNL1       -0.1995
     18 C          63.6835   90.9698   11.1641 C.ar    1  UNL1        0.1293
     19 N          62.7906   89.9680   10.4940 N.pl3   1  UNL1       -0.3425
     20 C          64.3353   90.6362   12.4732 C.ar    1  UNL1        0.0449
     21 H          65.6443   95.3003   10.9961 H       1  UNL1        0.1452
     22 H          64.6305   94.8618    9.6971 H       1  UNL1        0.1452
     23 H          62.3627   90.1870    9.6348 H       1  UNL1        0.1437
     24 H          62.6324   89.0914   10.9134 H       1  UNL1        0.1437
     25 C          67.3357   91.5996   14.6622 C.3     1  UNL1        0.0067
     26 C          65.8801   91.3043   14.4524 C.3     1  UNL1        0.0460
     27 C          62.4251   82.7617   13.8374 C.ar    1  UNL1        0.0264
     28 C          63.1967   81.9549   12.8355 C.ar    1  UNL1        0.0293
     29 C          62.7389   80.5733   12.4726 C.ar    1  UNL1        0.1422
     30 F          63.5105   79.7665   11.4707 F       1  UNL1       -0.2041
     31 C          61.5096   79.9985   13.1116 C.ar    1  UNL1        0.0592
     32 C          60.7381   80.8053   14.1134 C.ar    1  UNL1        0.1422
     33 F          59.5087   80.2305   14.7525 F       1  UNL1       -0.2041
     34 C          61.1958   82.1869   14.4764 C.ar    1  UNL1        0.0293
     35 C          62.6288   85.8483   10.6256 C.3     1  UNL1        0.1196
     36 C          61.2238   85.9205   10.1052 C.3     1  UNL1        0.1114
     37 N          60.7083   87.1984    9.5124 N.am    1  UNL1       -0.3006
     38 C          59.9461   87.1721    8.2207 C.2     1  UNL1        0.2524
     39 O          59.6994   85.8679    7.5219 O.2     1  UNL1       -0.2724
     40 H          60.8703   88.0543    9.9711 H       1  UNL1        0.1496
     41 C          59.4307   88.4499    7.6279 C.3     1  UNL1        0.2229
     42 O          60.0648   89.7579    7.9981 O.3     1  UNL1       -0.3737
     43 H          59.9066   89.9395    8.9377 H       1  UNL1        0.2110
@<TRIPOS>BOND
     1    25    26    1
     2    26    13    1
     3    13    14   ar
     4    14    15   ar
     5    15    16    1
     6    15    17   ar
     7    17    18   ar
     8    18    19    1
     9    18    20   ar
    10    20     1    1
    11     1     2   ar
    12     2     3   ar
    13     3     4   ar
    14     4     5   ar
    15     5     6   ar
    16     5     7    1
    17     7    35    1
    18    35    36    1
    19    36    37    1
    20    37    38   am
    21    38    39    2
    22    38    41    1
    23    41    42    1
    24     7     8   am
    25     8     9    2
    26     8    10    1
    27    10    11    1
    28    10    27    1
    29    27    28   ar
    30    28    29   ar
    31    29    30    1
    32    29    31   ar
    33    31    32   ar
    34    32    33    1
    35    32    34   ar
    36    10    12    1
    37    20    13   ar
    38     6     1   ar
    39    34    27   ar
    40    12     4    1
    41    16    21    1
    42    16    22    1
    43    19    23    1
    44    19    24    1
    45    37    40    1
    46    42    43    1
@<TRIPOS>MOLECULE
*****
 43 46 0 0 0
SMALL
GASTEIGER

@<TRIPOS>ATOM
      1 C          65.3890   90.7452   14.0676 C.ar    1  UNL1        0.0053
      2 C          65.0950   89.4662   14.7940 C.ar    1  UNL1        0.0033
      3 C          64.1650   88.4568   14.1889 C.ar    1  UNL1        0.0382
      4 C          63.5291   88.7264   12.8573 C.ar    1  UNL1        0.1529
      5 C          63.8232   90.0054   12.1309 C.ar    1  UNL1        0.0882
      6 C          64.7531   91.0148   12.7361 C.ar    1  UNL1        0.0181
      7 N          63.1873   90.2749   10.7994 N.am    1  UNL1       -0.2512
      8 C          62.2573   89.2656   10.1943 C.2     1  UNL1        0.2698
      9 O          61.6214   89.5351    8.8627 O.2     1  UNL1       -0.2704
     10 C          61.9632   87.9865   10.9207 C.3     1  UNL1        0.2199
     11 C          61.3776   86.6385   11.2209 C.3     1  UNL1        0.0579
     12 O          62.5991   87.7169   12.2522 O.3     1  UNL1       -0.4686
     13 C          65.9943   92.3724   16.0004 C.ar    1  UNL1        0.0645
     14 N          66.9242   93.3819   16.6056 N.ar    1  UNL1       -0.2183
     15 C          68.1790   93.7736   15.8830 C.ar    1  UNL1        0.2145
     16 N          69.1090   94.7830   16.4881 N.pl3   1  UNL1       -0.3274
     17 N          68.5038   93.1558   14.5552 N.ar    1  UNL1       -0.1995
     18 C          67.5738   92.1463   13.9501 C.ar    1  UNL1        0.1293
     19 N          67.8986   91.5285   12.6224 N.pl3   1  UNL1       -0.3425
     20 C          66.3191   91.7547   14.6727 C.ar    1  UNL1        0.0449
     21 H          68.8958   95.1884   17.3595 H       1  UNL1        0.1452
     22 H          69.9325   95.0401   16.0138 H       1  UNL1        0.1452
     23 H          68.7221   91.7856   12.1481 H       1  UNL1        0.1437
     24 H          67.2882   90.8660   12.2252 H       1  UNL1        0.1437
     25 C          63.7494   93.0314   17.1303 C.3     1  UNL1        0.0067
     26 C          64.7394   91.9807   16.7230 C.3     1  UNL1        0.0460
     27 C          61.1239   87.7879    9.6934 C.ar    1  UNL1        0.0264
     28 C          60.2411   88.8962    9.2012 C.ar    1  UNL1        0.0293
     29 C          59.4019   88.6976    7.9738 C.ar    1  UNL1        0.1422
     30 F          58.5190   89.8060    7.4816 F       1  UNL1       -0.2041
     31 C          59.4454   87.3909    7.2388 C.ar    1  UNL1        0.0592
     32 C          60.3282   86.2826    7.7311 C.ar    1  UNL1        0.1422
     33 F          60.3718   84.9757    6.9961 F       1  UNL1       -0.2041
     34 C          61.1675   86.4811    8.9584 C.ar    1  UNL1        0.0293
     35 C          63.4814   91.5539   10.0730 C.3     1  UNL1        0.1196
     36 C          64.8259   92.2040   10.2131 C.3     1  UNL1        0.1114
     37 N          64.9248   93.6879   10.4090 N.am    1  UNL1       -0.3006
     38 C          66.2697   94.3391   10.5399 C.2     1  UNL1        0.2524
     39 O          67.5157   93.5065   10.4749 O.2     1  UNL1       -0.2724
     40 H          64.1070   94.2344   10.4516 H       1  UNL1        0.1496
     41 C          66.3686   95.8230   10.7357 C.3     1  UNL1        0.2229
     42 O          65.5545   96.4948   11.8015 O.3     1  UNL1       -0.3737
     43 H          64.6123   96.4224   11.5825 H       1  UNL1        0.2110
@<TRIPOS>BOND
     1    25    26    1
     2    26    13    1
     3    13    14   ar
     4    14    15   ar
     5    15    16    1
     6    15    17   ar
     7    17    18   ar
     8    18    19    1
     9    18    20   ar
    10    20     1    1
    11     1     2   ar
    12     2     3   ar
    13     3     4   ar
    14     4     5   ar
    15     5     6   ar
    16     5     7    1
    17     7    35    1
    18    35    36    1
    19    36    37    1
    20    37    38   am
    21    38    39    2
    22    38    41    1
    23    41    42    1
    24     7     8   am
    25     8     9    2
    26     8    10    1
    27    10    11    1
    28    10    27    1
    29    27    28   ar
    30    28    29   ar
    31    29    30    1
    32    29    31   ar
    33    31    32   ar
    34    32    33    1
    35    32    34   ar
    36    10    12    1
    37    20    13   ar
    38     6     1   ar
    39    34    27   ar
    40    12     4    1
    41    16    21    1
    42    16    22    1
    43    19    23    1
    44    19    24    1
    45    37    40    1
    46    42    43    1
@<TRIPOS>MOLECULE
*****
 43 46 0 0 0
SMALL
GASTEIGER

@<TRIPOS>ATOM
      1 C          61.0246   93.9361    0.5506 C.ar    1  UNL1        0.0053
      2 C          59.9934   93.1317    1.2850 C.ar    1  UNL1        0.0033
      3 C          58.7760   92.6350    0.5632 C.ar    1  UNL1        0.0382
      4 C          58.5898   92.9426   -0.8931 C.ar    1  UNL1        0.1529
      5 C          59.6210   93.7470   -1.6275 C.ar    1  UNL1        0.0882
      6 C          60.8385   94.2438   -0.9057 C.ar    1  UNL1        0.0181
      7 N          59.4349   94.0547   -3.0837 N.am    1  UNL1       -0.2512
      8 C          58.2174   93.5580   -3.8056 C.2     1  UNL1        0.2698
      9 O          58.0313   93.8656   -5.2618 O.2     1  UNL1       -0.2704
     10 C          57.1861   92.7535   -3.0712 C.3     1  UNL1        0.2199
     11 C          55.9399   91.9603   -2.8111 C.3     1  UNL1        0.0579
     12 O          57.3723   92.4458   -1.6149 O.3     1  UNL1       -0.4686
     13 C          63.1147   93.4701    2.0219 C.ar    1  UNL1        0.0645
     14 N          64.3321   93.9668    2.7437 N.ar    1  UNL1       -0.2183
     15 C          64.6771   95.4264    2.7161 C.ar    1  UNL1        0.2145
     16 N          65.8945   95.9231    3.4379 N.pl3   1  UNL1       -0.3274
     17 N          63.8045   96.3892    1.9666 N.ar    1  UNL1       -0.1995
     18 C          62.5870   95.8924    1.2448 C.ar    1  UNL1        0.1293
     19 N          61.7145   96.8552    0.4953 N.pl3   1  UNL1       -0.3425
     20 C          62.2421   94.4329    1.2724 C.ar    1  UNL1        0.0449
     21 H          66.4672   95.2912    3.9298 H       1  UNL1        0.1452
     22 H          66.1209   96.8811    3.4197 H       1  UNL1        0.1452
     23 H          61.9409   97.8132    0.4772 H       1  UNL1        0.1437
     24 H          60.9154   96.5292    0.0216 H       1  UNL1        0.1437
     25 C          63.4371   91.1007    3.0379 C.3     1  UNL1        0.0067
     26 C          62.7697   92.0105    2.0495 C.3     1  UNL1        0.0460
     27 C          56.5672   92.7857   -4.4371 C.ar    1  UNL1        0.0264
     28 C          56.6259   91.5716   -5.3159 C.ar    1  UNL1        0.0293
     29 C          56.0069   91.6038   -6.6819 C.ar    1  UNL1        0.1422
     30 F          56.0658   90.3895   -7.5607 F       1  UNL1       -0.2041
     31 C          55.3292   92.8500   -7.1690 C.ar    1  UNL1        0.0592
     32 C          55.2704   94.0641   -6.2902 C.ar    1  UNL1        0.1422
     33 F          54.5926   95.3105   -6.7773 F       1  UNL1       -0.2041
     34 C          55.8894   94.0321   -4.9242 C.ar    1  UNL1        0.0293
     35 C          60.4661   94.8591   -3.8182 C.3     1  UNL1        0.1196
     36 C          61.3656   94.1929   -4.8166 C.3     1  UNL1        0.1114
     37 N          62.7166   93.6960   -4.3947 N.am    1  UNL1       -0.3006
     38 C          63.7388   93.3317   -5.4303 C.2     1  UNL1        0.2524
     39 O          63.4100   93.4644   -6.8878 O.2     1  UNL1       -0.2724
     40 H          62.9324   93.6090   -3.4381 H       1  UNL1        0.1496
     41 C          65.0898   92.8349   -5.0084 C.3     1  UNL1        0.2229
     42 O          65.2126   91.8842   -3.8546 O.3     1  UNL1       -0.3737
     43 H          64.9414   92.3309   -3.0373 H       1  UNL1        0.2110
@<TRIPOS>BOND
     1    25    26    1
     2    26    13    1
     3    13    14   ar
     4    14    15   ar
     5    15    16    1
     6    15    17   ar
     7    17    18   ar
     8    18    19    1
     9    18    20   ar
    10    20     1    1
    11     1     2   ar
    12     2     3   ar
    13     3     4   ar
    14     4     5   ar
    15     5     6   ar
    16     5     7    1
    17     7    35    1
    18    35    36    1
    19    36    37    1
    20    37    38   am
    21    38    39    2
    22    38    41    1
    23    41    42    1
    24     7     8   am
    25     8     9    2
    26     8    10    1
    27    10    11    1
    28    10    27    1
    29    27    28   ar
    30    28    29   ar
    31    29    30    1
    32    29    31   ar
    33    31    32   ar
    34    32    33    1
    35    32    34   ar
    36    10    12    1
    37    20    13   ar
    38     6     1   ar
    39    34    27   ar
    40    12     4    1
    41    16    21    1
    42    16    22    1
    43    19    23    1
    44    19    24    1
    45    37    40    1
    46    42    43    1
@<TRIPOS>MOLECULE
*****
 43 46 0 0 0
SMALL
GASTEIGER

@<TRIPOS>ATOM
      1 C          62.3570   86.2641   10.2301 C.ar    1  UNL1        0.0053
      2 C          62.4571   85.3184   11.3900 C.ar    1  UNL1        0.0033
      3 C          62.9047   85.8207   12.7307 C.ar    1  UNL1        0.0382
      4 C          63.2520   87.2687   12.9114 C.ar    1  UNL1        0.1529
      5 C          63.1518   88.2144   11.7514 C.ar    1  UNL1        0.0882
      6 C          62.7043   87.7121   10.4108 C.ar    1  UNL1        0.0181
      7 N          63.4992   89.6624   11.9321 N.am    1  UNL1       -0.2512
      8 C          63.9467   90.1647   13.2728 C.2     1  UNL1        0.2698
      9 O          64.2941   91.6127   13.4535 O.2     1  UNL1       -0.2704
     10 C          64.0469   89.2189   14.4328 C.3     1  UNL1        0.2199
     11 C          64.2981   88.7153   15.8233 C.3     1  UNL1        0.0579
     12 O          63.6996   87.7709   14.2521 O.3     1  UNL1       -0.4686
     13 C          60.6272   86.2604    8.2915 C.ar    1  UNL1        0.0645
     14 N          60.1796   85.7582    6.9509 N.ar    1  UNL1       -0.2183
     15 C          61.0143   84.7574    6.2079 C.ar    1  UNL1        0.2145
     16 N          60.5667   84.2552    4.8673 N.pl3   1  UNL1       -0.3274
     17 N          62.2965   84.2589    6.8058 N.ar    1  UNL1       -0.1995
     18 C          62.7440   84.7612    8.1465 C.ar    1  UNL1        0.1293
     19 N          64.0263   84.2626    8.7443 N.pl3   1  UNL1       -0.3425
     20 C          61.9094   85.7619    8.8893 C.ar    1  UNL1        0.0449
     21 H          59.7251   84.5824    4.4749 H       1  UNL1        0.1452
     22 H          61.1145   83.5984    4.3797 H       1  UNL1        0.1452
     23 H          64.5741   83.6058    8.2567 H       1  UNL1        0.1437
     24 H          64.3200   84.5923    9.6242 H       1  UNL1        0.1437
     25 C          59.7881   88.6990    8.6069 C.3     1  UNL1        0.0067
     26 C          59.7925   87.2612    9.0345 C.3     1  UNL1        0.0460
     27 C          64.4815   90.4920   15.0964 C.ar    1  UNL1        0.0264
     28 C          63.5249   91.2457   15.9721 C.ar    1  UNL1        0.0293
     29 C          63.9595   92.5189   16.6357 C.ar    1  UNL1        0.1422
     30 F          63.0028   93.2726   17.5114 F       1  UNL1       -0.2041
     31 C          65.3505   93.0383   16.4236 C.ar    1  UNL1        0.0592
     32 C          66.3071   92.2845   15.5479 C.ar    1  UNL1        0.1422
     33 F          67.6983   92.8040   15.3358 F       1  UNL1       -0.2041
     34 C          65.8726   91.0114   14.8843 C.ar    1  UNL1        0.0293
     35 C          63.3990   90.6081   10.7722 C.3     1  UNL1        0.1196
     36 C          64.6033   91.3875   10.3337 C.3     1  UNL1        0.1114
     37 N          64.6946   92.8555   10.6283 N.am    1  UNL1       -0.3006
     38 C          66.0213   93.4734   10.9569 C.2     1  UNL1        0.2524
     39 O          67.2567   92.6233   10.9911 O.2     1  UNL1       -0.2724
     40 H          63.8838   93.4135   10.6058 H       1  UNL1        0.1496
     41 C          66.1127   94.9413   11.2515 C.3     1  UNL1        0.2229
     42 O          65.1023   95.8868   10.6725 O.3     1  UNL1       -0.3737
     43 H          65.1959   95.9087    9.7073 H       1  UNL1        0.2110
@<TRIPOS>BOND
     1    25    26    1
     2    26    13    1
     3    13    14   ar
     4    14    15   ar
     5    15    16    1
     6    15    17   ar
     7    17    18   ar
     8    18    19    1
     9    18    20   ar
    10    20     1    1
    11     1     2   ar
    12     2     3   ar
    13     3     4   ar
    14     4     5   ar
    15     5     6   ar
    16     5     7    1
    17     7    35    1
    18    35    36    1
    19    36    37    1
    20    37    38   am
    21    38    39    2
    22    38    41    1
    23    41    42    1
    24     7     8   am
    25     8     9    2
    26     8    10    1
    27    10    11    1
    28    10    27    1
    29    27    28   ar
    30    28    29   ar
    31    29    30    1
    32    29    31   ar
    33    31    32   ar
    34    32    33    1
    35    32    34   ar
    36    10    12    1
    37    20    13   ar
    38     6     1   ar
    39    34    27   ar
    40    12     4    1
    41    16    21    1
    42    16    22    1
    43    19    23    1
    44    19    24    1
    45    37    40    1
    46    42    43    1
@<TRIPOS>MOLECULE
*****
 43 46 0 0 0
SMALL
GASTEIGER

@<TRIPOS>ATOM
      1 C          62.3330   86.1554   10.3312 C.ar    1  UNL1        0.0053
      2 C          62.3675   85.2377   11.5172 C.ar    1  UNL1        0.0033
      3 C          62.8164   85.7540   12.8521 C.ar    1  UNL1        0.0382
      4 C          63.2306   87.1879   13.0010 C.ar    1  UNL1        0.1529
      5 C          63.1961   88.1056   11.8150 C.ar    1  UNL1        0.0882
      6 C          62.7473   87.5894   10.4801 C.ar    1  UNL1        0.0181
      7 N          63.6103   89.5396   11.9640 N.am    1  UNL1       -0.2512
      8 C          64.0592   90.0558   13.2989 C.2     1  UNL1        0.2698
      9 O          64.4734   91.4898   13.4478 O.2     1  UNL1       -0.2704
     10 C          64.0937   89.1381   14.4849 C.3     1  UNL1        0.2199
     11 C          64.2966   88.6608   15.8924 C.3     1  UNL1        0.0579
     12 O          63.6795   87.7041   14.3360 O.3     1  UNL1       -0.4686
     13 C          62.7603   84.6992    8.2224 C.ar    1  UNL1        0.0645
     14 N          62.3116   84.1830    6.8875 N.ar    1  UNL1       -0.2183
     15 C          60.9866   84.6068    6.3263 C.ar    1  UNL1        0.2145
     16 N          60.5378   84.0906    4.9913 N.pl3   1  UNL1       -0.3274
     17 N          60.1104   85.5468    7.1000 N.ar    1  UNL1       -0.1995
     18 C          60.5593   86.0630    8.4350 C.ar    1  UNL1        0.1293
     19 N          59.6831   87.0031    9.2088 N.pl3   1  UNL1       -0.3425
     20 C          61.8842   85.6392    8.9962 C.ar    1  UNL1        0.0449
     21 H          61.1129   83.4736    4.4835 H       1  UNL1        0.1452
     22 H          59.6682   84.3687    4.6230 H       1  UNL1        0.1452
     23 H          58.8135   87.2812    8.8405 H       1  UNL1        0.1437
     24 H          59.9777   87.3419   10.0850 H       1  UNL1        0.1437
     25 C          64.1565   83.1434    9.7653 C.3     1  UNL1        0.0067
     26 C          64.0853   84.2754    8.7837 C.3     1  UNL1        0.0460
     27 C          64.5784   90.4062   15.1227 C.ar    1  UNL1        0.0264
     28 C          65.9824   90.8770   14.8834 C.ar    1  UNL1        0.0293
     29 C          66.4671   92.1452   15.5212 C.ar    1  UNL1        0.1422
     30 F          67.8712   92.6159   15.2819 F       1  UNL1       -0.2041
     31 C          65.5480   92.9427   16.3981 C.ar    1  UNL1        0.0592
     32 C          64.1440   92.4719   16.6373 C.ar    1  UNL1        0.1422
     33 F          63.2247   93.2694   17.5143 F       1  UNL1       -0.2041
     34 C          63.6592   91.2037   15.9996 C.ar    1  UNL1        0.0293
     35 C          63.5758   90.4573   10.7780 C.3     1  UNL1        0.1196
     36 C          62.3398   91.2540   10.4819 C.3     1  UNL1        0.1114
     37 N          61.1417   91.1401   11.3773 N.am    1  UNL1       -0.3006
     38 C          59.9515   90.3392   10.9392 C.2     1  UNL1        0.2524
     39 O          59.9593   89.6522    9.6057 O.2     1  UNL1       -0.2724
     40 H          61.1366   91.5910   12.2524 H       1  UNL1        0.1496
     41 C          58.7534   90.2254   11.8345 C.3     1  UNL1        0.2229
     42 O          58.4645   88.9336   12.5402 O.3     1  UNL1       -0.3737
     43 H          58.2448   88.2507   11.8874 H       1  UNL1        0.2110
@<TRIPOS>BOND
     1    25    26    1
     2    26    13    1
     3    13    14   ar
     4    14    15   ar
     5    15    16    1
     6    15    17   ar
     7    17    18   ar
     8    18    19    1
     9    18    20   ar
    10    20     1    1
    11     1     2   ar
    12     2     3   ar
    13     3     4   ar
    14     4     5   ar
    15     5     6   ar
    16     5     7    1
    17     7    35    1
    18    35    36    1
    19    36    37    1
    20    37    38   am
    21    38    39    2
    22    38    41    1
    23    41    42    1
    24     7     8   am
    25     8     9    2
    26     8    10    1
    27    10    11    1
    28    10    27    1
    29    27    28   ar
    30    28    29   ar
    31    29    30    1
    32    29    31   ar
    33    31    32   ar
    34    32    33    1
    35    32    34   ar
    36    10    12    1
    37    20    13   ar
    38     6     1   ar
    39    34    27   ar
    40    12     4    1
    41    16    21    1
    42    16    22    1
    43    19    23    1
    44    19    24    1
    45    37    40    1
    46    42    43    1
@<TRIPOS>MOLECULE
*****
 43 46 0 0 0
SMALL
GASTEIGER

@<TRIPOS>ATOM
      1 C          60.9896   93.8475    0.1353 C.ar    1  UNL1        0.0053
      2 C          59.8848   93.2280    0.9388 C.ar    1  UNL1        0.0033
      3 C          58.6311   92.7649    0.2579 C.ar    1  UNL1        0.0382
      4 C          58.4822   92.9212   -1.2265 C.ar    1  UNL1        0.1529
      5 C          59.5870   93.5407   -2.0299 C.ar    1  UNL1        0.0882
      6 C          60.8407   94.0038   -1.3490 C.ar    1  UNL1        0.0181
      7 N          59.4380   93.6971   -3.5143 N.am    1  UNL1       -0.2512
      8 C          58.1843   93.2339   -4.1952 C.2     1  UNL1        0.2698
      9 O          58.0354   93.3903   -5.6796 O.2     1  UNL1       -0.2704
     10 C          57.0795   92.6144   -3.3918 C.3     1  UNL1        0.2199
     11 C          55.7643   91.9717   -3.0643 C.3     1  UNL1        0.0579
     12 O          57.2284   92.4581   -1.9074 O.3     1  UNL1       -0.4686
     13 C          62.9759   93.3895    1.7463 C.ar    1  UNL1        0.0645
     14 N          64.2296   93.8526    2.4271 N.ar    1  UNL1       -0.2183
     15 C          64.7509   95.2369    2.1780 C.ar    1  UNL1        0.2145
     16 N          66.0046   95.7000    2.8589 N.pl3   1  UNL1       -0.3274
     17 N          64.0184   96.1581    1.2480 N.ar    1  UNL1       -0.1995
     18 C          62.7646   95.6949    0.5671 C.ar    1  UNL1        0.1293
     19 N          62.0321   96.6161   -0.3629 N.pl3   1  UNL1       -0.3425
     20 C          62.2434   94.3107    0.8162 C.ar    1  UNL1        0.0449
     21 H          66.4854   95.0955    3.4693 H       1  UNL1        0.1452
     22 H          66.3467   96.6086    2.6954 H       1  UNL1        0.1452
     23 H          62.3742   97.5246   -0.5264 H       1  UNL1        0.1437
     24 H          61.2092   96.3121   -0.8098 H       1  UNL1        0.1437
     25 C          62.8764   91.2547    3.2237 C.3     1  UNL1        0.0067
     26 C          62.4546   92.0052    1.9954 C.3     1  UNL1        0.0460
     27 C          56.4738   92.5476   -4.7624 C.ar    1  UNL1        0.0264
     28 C          55.9676   93.7968   -5.4204 C.ar    1  UNL1        0.0293
     29 C          55.3620   93.7300   -6.7911 C.ar    1  UNL1        0.1422
     30 F          54.8558   94.9794   -7.4491 F       1  UNL1       -0.2041
     31 C          55.2625   92.4139   -7.5037 C.ar    1  UNL1        0.0592
     32 C          55.7687   91.1646   -6.8457 C.ar    1  UNL1        0.1422
     33 F          55.6692   89.8484   -7.5583 F       1  UNL1       -0.2041
     34 C          56.3743   91.2314   -5.4750 C.ar    1  UNL1        0.0293
     35 C          60.5428   94.3166   -4.3178 C.3     1  UNL1        0.1196
     36 C          61.1338   95.6284   -3.8939 C.3     1  UNL1        0.1114
     37 N          62.3535   96.1604   -4.5865 N.am    1  UNL1       -0.3006
     38 C          63.6934   96.0736   -3.9179 C.2     1  UNL1        0.2524
     39 O          63.8137   95.4549   -2.5567 O.2     1  UNL1       -0.2724
     40 H          62.2745   96.5664   -5.4799 H       1  UNL1        0.1496
     41 C          64.9130   96.6055   -4.6104 C.3     1  UNL1        0.2229
     42 O          66.1695   96.8555   -3.8302 O.3     1  UNL1       -0.3737
     43 H          66.0181   97.5724   -3.1946 H       1  UNL1        0.2110
@<TRIPOS>BOND
     1    25    26    1
     2    26    13    1
     3    13    14   ar
     4    14    15   ar
     5    15    16    1
     6    15    17   ar
     7    17    18   ar
     8    18    19    1
     9    18    20   ar
    10    20     1    1
    11     1     2   ar
    12     2     3   ar
    13     3     4   ar
    14     4     5   ar
    15     5     6   ar
    16     5     7    1
    17     7    35    1
    18    35    36    1
    19    36    37    1
    20    37    38   am
    21    38    39    2
    22    38    41    1
    23    41    42    1
    24     7     8   am
    25     8     9    2
    26     8    10    1
    27    10    11    1
    28    10    27    1
    29    27    28   ar
    30    28    29   ar
    31    29    30    1
    32    29    31   ar
    33    31    32   ar
    34    32    33    1
    35    32    34   ar
    36    10    12    1
    37    20    13   ar
    38     6     1   ar
    39    34    27   ar
    40    12     4    1
    41    16    21    1
    42    16    22    1
    43    19    23    1
    44    19    24    1
    45    37    40    1
    46    42    43    1
