@<TRIPOS>MOLECULE
*****
 30 33 0 0 0
SMALL
GASTEIGER

@<TRIPOS>ATOM
      1 N          59.6525   88.0978   10.5546 N.pl3   1  UNL1       -0.3039
      2 H          58.6983   87.8590   10.5972 H       1  UNL1        0.1496
      3 C          60.4613   87.1121    7.8391 C.3     1  UNL1        0.1363
      4 N          61.0943   86.5292    9.0678 N.ar    1  UNL1       -0.2669
      5 C          60.6899   87.0220   10.4256 C.ar    1  UNL1        0.2002
      6 N          61.3227   86.4391   11.6542 N.ar    1  UNL1       -0.2150
      7 C          62.3601   85.3633   11.5252 C.ar    1  UNL1        0.0895
      8 C          62.9930   84.7804   12.7538 C.ar    1  UNL1        0.0307
      9 C          64.0303   83.7047   12.6247 C.ar    1  UNL1        0.0592
     10 CL         64.6633   83.1217   13.8534 Cl      1  UNL1       -0.0822
     11 C          64.4348   83.2118   11.2669 C.ar    1  UNL1        0.0116
     12 C          63.8019   83.7947   10.0383 C.ar    1  UNL1        0.0071
     13 C          62.7646   84.8705   10.1674 C.ar    1  UNL1        0.0740
     14 C          62.1316   85.4534    8.9387 C.ar    1  UNL1        0.2643
     15 O          62.5360   84.9606    7.5809 O.2     1  UNL1       -0.2668
     16 C          60.0689   89.5374   10.6188 C.3     1  UNL1        0.0942
     17 C          61.3825   89.9649   10.0345 C.3     1  UNL1        0.0476
     18 C          62.4856   90.4371   10.9346 C.ar    1  UNL1       -0.0205
     19 C          62.6034   89.8909   12.3267 C.ar    1  UNL1       -0.0042
     20 C          63.7064   90.3631   13.2268 C.ar    1  UNL1        0.0012
     21 C          64.6917   91.3815   12.7349 C.ar    1  UNL1        0.0176
     22 C          64.5740   91.9277   11.3429 C.ar    1  UNL1        0.0012
     23 C          63.4709   91.4555   10.4427 C.ar    1  UNL1       -0.0042
     24 C          65.7948   91.8537   13.6351 C.ar    1  UNL1        0.0814
     25 C          67.2146   91.8417   13.1513 C.ar    1  UNL1        0.0200
     26 C          68.3177   92.3139   14.0513 C.ar    1  UNL1        0.0145
     27 C          68.0010   92.7981   15.4353 C.ar    1  UNL1        0.0768
     28 CL         69.1041   93.2703   16.3354 Cl      1  UNL1       -0.0806
     29 C          66.5813   92.8101   15.9191 C.ar    1  UNL1        0.1101
     30 N          65.4781   92.3379   15.0190 N.ar    1  UNL1       -0.2430
@<TRIPOS>BOND
     1     3     4    1
     2     4     5   ar
     3     5     1    1
     4     1    16    1
     5    16    17    1
     6    17    18    1
     7    18    19   ar
     8    19    20   ar
     9    20    21   ar
    10    21    24    1
    11    24    25   ar
    12    25    26   ar
    13    26    27   ar
    14    27    28    1
    15    27    29   ar
    16    29    30   ar
    17    21    22   ar
    18    22    23   ar
    19     5     6   ar
    20     6     7   ar
    21     7     8   ar
    22     8     9   ar
    23     9    10    1
    24     9    11   ar
    25    11    12   ar
    26    12    13   ar
    27    13    14   ar
    28    14    15    2
    29    14     4   ar
    30    23    18   ar
    31    13     7   ar
    32    30    24   ar
    33     1     2    1
@<TRIPOS>MOLECULE
*****
 30 33 0 0 0
SMALL
GASTEIGER

@<TRIPOS>ATOM
      1 N          62.4272   83.5656   15.1818 N.pl3   1  UNL1       -0.3039
      2 H          61.7396   82.9233   15.4715 H       1  UNL1        0.1496
      3 C          64.0734   81.7205   13.4832 C.3     1  UNL1        0.1363
      4 N          63.4372   82.9342   12.8729 N.ar    1  UNL1       -0.2669
      5 C          62.6141   83.8568   13.7222 C.ar    1  UNL1        0.2002
      6 N          61.9779   85.0704   13.1120 N.ar    1  UNL1       -0.2150
      7 C          62.1649   85.3615   11.6524 C.ar    1  UNL1        0.0895
      8 C          61.5287   86.5751   11.0422 C.ar    1  UNL1        0.0307
      9 C          61.7157   86.8661    9.5827 C.ar    1  UNL1        0.0592
     10 CL         61.0795   88.0798    8.9724 Cl      1  UNL1       -0.0822
     11 C          62.5388   85.9436    8.7333 C.ar    1  UNL1        0.0116
     12 C          63.1750   84.7300    9.3435 C.ar    1  UNL1        0.0071
     13 C          62.9880   84.4389   10.8031 C.ar    1  UNL1        0.0740
     14 C          63.6242   83.2252   11.4134 C.ar    1  UNL1        0.2643
     15 O          64.4473   82.3027   10.5640 O.2     1  UNL1       -0.2668
     16 C          63.2878   84.2532   16.2000 C.3     1  UNL1        0.0942
     17 C          62.8704   85.5798   16.7618 C.3     1  UNL1        0.0476
     18 C          63.3638   86.8493   16.1331 C.ar    1  UNL1       -0.0205
     19 C          64.2437   86.7926   14.9196 C.ar    1  UNL1       -0.0042
     20 C          64.7371   88.0619   14.2910 C.ar    1  UNL1        0.0012
     21 C          64.3506   89.3880   14.8758 C.ar    1  UNL1        0.0176
     22 C          63.4706   89.4447   16.0892 C.ar    1  UNL1        0.0012
     23 C          62.9772   88.1754   16.7179 C.ar    1  UNL1       -0.0042
     24 C          64.8440   90.6574   14.2471 C.ar    1  UNL1        0.0814
     25 C          64.4082   91.0261   12.8600 C.ar    1  UNL1        0.0200
     26 C          64.9016   92.2954   12.2313 C.ar    1  UNL1        0.0145
     27 C          65.8307   93.1962   12.9898 C.ar    1  UNL1        0.0768
     28 CL         66.3241   94.4656   12.3611 Cl      1  UNL1       -0.0806
     29 C          66.2665   92.8276   14.3770 C.ar    1  UNL1        0.1101
     30 N          65.7731   91.5582   15.0056 N.ar    1  UNL1       -0.2430
@<TRIPOS>BOND
     1     3     4    1
     2     4     5   ar
     3     5     1    1
     4     1    16    1
     5    16    17    1
     6    17    18    1
     7    18    19   ar
     8    19    20   ar
     9    20    21   ar
    10    21    24    1
    11    24    25   ar
    12    25    26   ar
    13    26    27   ar
    14    27    28    1
    15    27    29   ar
    16    29    30   ar
    17    21    22   ar
    18    22    23   ar
    19     5     6   ar
    20     6     7   ar
    21     7     8   ar
    22     8     9   ar
    23     9    10    1
    24     9    11   ar
    25    11    12   ar
    26    12    13   ar
    27    13    14   ar
    28    14    15    2
    29    14     4   ar
    30    23    18   ar
    31    13     7   ar
    32    30    24   ar
    33     1     2    1
@<TRIPOS>MOLECULE
*****
 30 33 0 0 0
SMALL
GASTEIGER

@<TRIPOS>ATOM
      1 N          64.2580   87.9776   14.4091 N.pl3   1  UNL1       -0.3039
      2 H          65.1146   87.5844   14.6933 H       1  UNL1        0.1496
      3 C          64.1737   85.0035   14.0252 C.3     1  UNL1        0.1363
      4 N          63.4712   85.9053   13.0539 N.ar    1  UNL1       -0.2669
      5 C          63.5133   87.3924   13.2459 C.ar    1  UNL1        0.2002
      6 N          62.8108   88.2942   12.2748 N.ar    1  UNL1       -0.2150
      7 C          62.0661   87.7089   11.1115 C.ar    1  UNL1        0.0895
      8 C          61.3636   88.6107   10.1404 C.ar    1  UNL1        0.0307
      9 C          60.6190   88.0254    8.9773 C.ar    1  UNL1        0.0592
     10 CL         59.9164   88.9272    8.0060 Cl      1  UNL1       -0.0822
     11 C          60.5768   86.5384    8.7853 C.ar    1  UNL1        0.0116
     12 C          61.2793   85.6366    9.7565 C.ar    1  UNL1        0.0071
     13 C          62.0240   86.2218   10.9196 C.ar    1  UNL1        0.0740
     14 C          62.7265   85.3200   11.8908 C.ar    1  UNL1        0.2643
     15 O          62.6844   83.8330   11.6989 O.2     1  UNL1       -0.2668
     16 C          63.6975   89.1620   15.1392 C.3     1  UNL1        0.0942
     17 C          64.5814   90.3293   15.4649 C.3     1  UNL1        0.0476
     18 C          65.0240   91.2617   14.3764 C.ar    1  UNL1       -0.0205
     19 C          64.3300   91.2454   13.0467 C.ar    1  UNL1       -0.0042
     20 C          64.7725   92.1777   11.9583 C.ar    1  UNL1        0.0012
     21 C          65.9091   93.1263   12.1994 C.ar    1  UNL1        0.0176
     22 C          66.6032   93.1426   13.5291 C.ar    1  UNL1        0.0012
     23 C          66.1606   92.2103   14.6176 C.ar    1  UNL1       -0.0042
     24 C          66.3517   94.0587   11.1109 C.ar    1  UNL1        0.0814
     25 C          67.2193   93.5528    9.9968 C.ar    1  UNL1        0.0200
     26 C          67.6619   94.4851    8.9083 C.ar    1  UNL1        0.0145
     27 C          67.2369   95.9235    8.9339 C.ar    1  UNL1        0.0768
     28 CL         67.6795   96.8558    7.8454 Cl      1  UNL1       -0.0806
     29 C          66.3693   96.4294   10.0480 C.ar    1  UNL1        0.1101
     30 N          65.9267   95.4970   11.1365 N.ar    1  UNL1       -0.2430
@<TRIPOS>BOND
     1     3     4    1
     2     4     5   ar
     3     5     1    1
     4     1    16    1
     5    16    17    1
     6    17    18    1
     7    18    19   ar
     8    19    20   ar
     9    20    21   ar
    10    21    24    1
    11    24    25   ar
    12    25    26   ar
    13    26    27   ar
    14    27    28    1
    15    27    29   ar
    16    29    30   ar
    17    21    22   ar
    18    22    23   ar
    19     5     6   ar
    20     6     7   ar
    21     7     8   ar
    22     8     9   ar
    23     9    10    1
    24     9    11   ar
    25    11    12   ar
    26    12    13   ar
    27    13    14   ar
    28    14    15    2
    29    14     4   ar
    30    23    18   ar
    31    13     7   ar
    32    30    24   ar
    33     1     2    1
@<TRIPOS>MOLECULE
*****
 30 33 0 0 0
SMALL
GASTEIGER

@<TRIPOS>ATOM
      1 N          63.4762   89.9680   16.4646 N.pl3   1  UNL1       -0.3039
      2 H          63.9736   90.5107   17.1183 H       1  UNL1        0.1496
      3 C          65.6068   91.8127   15.4360 C.3     1  UNL1        0.1363
      4 N          64.5903   91.2409   14.4926 N.ar    1  UNL1       -0.2669
      5 C          63.5251   90.3186   15.0069 C.ar    1  UNL1        0.2002
      6 N          62.5086   89.7468   14.0635 N.ar    1  UNL1       -0.2150
      7 C          62.5574   90.0974   12.6058 C.ar    1  UNL1        0.0895
      8 C          61.5410   89.5256   11.6625 C.ar    1  UNL1        0.0307
      9 C          61.5899   89.8762   10.2049 C.ar    1  UNL1        0.0592
     10 CL         60.5734   89.3044    9.2615 Cl      1  UNL1       -0.0822
     11 C          62.6552   90.7986    9.6906 C.ar    1  UNL1        0.0116
     12 C          63.6716   91.3703   10.6340 C.ar    1  UNL1        0.0071
     13 C          63.6227   91.0197   12.0916 C.ar    1  UNL1        0.0740
     14 C          64.6392   91.5915   13.0350 C.ar    1  UNL1        0.2643
     15 O          65.7044   92.5139   12.5207 O.2     1  UNL1       -0.2668
     16 C          62.6697   88.7906   16.9262 C.3     1  UNL1        0.0942
     17 C          63.3449   87.4787   17.1966 C.3     1  UNL1        0.0476
     18 C          63.3094   86.3902   16.1651 C.ar    1  UNL1       -0.0205
     19 C          62.3710   85.2315   16.3295 C.ar    1  UNL1       -0.0042
     20 C          62.3355   84.1430   15.2981 C.ar    1  UNL1        0.0012
     21 C          63.2383   84.2132   14.1023 C.ar    1  UNL1        0.0176
     22 C          64.1766   85.3719   13.9379 C.ar    1  UNL1        0.0012
     23 C          64.2122   86.4604   14.9693 C.ar    1  UNL1       -0.0042
     24 C          63.2028   83.1247   13.0708 C.ar    1  UNL1        0.0814
     25 C          63.7224   83.3847   11.6879 C.ar    1  UNL1        0.0200
     26 C          63.6869   82.2962   10.6564 C.ar    1  UNL1        0.0145
     27 C          63.1318   80.9477   11.0078 C.ar    1  UNL1        0.0768
     28 CL         63.0963   79.8592    9.9764 Cl      1  UNL1       -0.0806
     29 C          62.6122   80.6877   12.3907 C.ar    1  UNL1        0.1101
     30 N          62.6477   81.7762   13.4222 N.ar    1  UNL1       -0.2430
@<TRIPOS>BOND
     1     3     4    1
     2     4     5   ar
     3     5     1    1
     4     1    16    1
     5    16    17    1
     6    17    18    1
     7    18    19   ar
     8    19    20   ar
     9    20    21   ar
    10    21    24    1
    11    24    25   ar
    12    25    26   ar
    13    26    27   ar
    14    27    28    1
    15    27    29   ar
    16    29    30   ar
    17    21    22   ar
    18    22    23   ar
    19     5     6   ar
    20     6     7   ar
    21     7     8   ar
    22     8     9   ar
    23     9    10    1
    24     9    11   ar
    25    11    12   ar
    26    12    13   ar
    27    13    14   ar
    28    14    15    2
    29    14     4   ar
    30    23    18   ar
    31    13     7   ar
    32    30    24   ar
    33     1     2    1
@<TRIPOS>MOLECULE
*****
 30 33 0 0 0
SMALL
GASTEIGER

@<TRIPOS>ATOM
      1 N          64.4945   88.5838   14.8663 N.pl3   1  UNL1       -0.3039
      2 H          65.4716   88.6604   14.9595 H       1  UNL1        0.1496
      3 C          64.7264   91.3114   13.6390 C.3     1  UNL1        0.1363
      4 N          63.9581   90.2340   12.9326 N.ar    1  UNL1       -0.2669
      5 C          63.8422   88.8701   13.5463 C.ar    1  UNL1        0.2002
      6 N          63.0740   87.7927   12.8399 N.ar    1  UNL1       -0.2150
      7 C          62.4217   88.0791   11.5198 C.ar    1  UNL1        0.0895
      8 C          61.6535   87.0016   10.8135 C.ar    1  UNL1        0.0307
      9 C          61.0012   87.2880    9.4935 C.ar    1  UNL1        0.0592
     10 CL         60.2329   86.2105    8.7871 Cl      1  UNL1       -0.0822
     11 C          61.1171   88.6518    8.8798 C.ar    1  UNL1        0.0116
     12 C          61.8853   89.7292    9.5862 C.ar    1  UNL1        0.0071
     13 C          62.5376   89.4429   10.9062 C.ar    1  UNL1        0.0740
     14 C          63.3059   90.5203   11.6126 C.ar    1  UNL1        0.2643
     15 O          63.4218   91.8841   10.9989 O.2     1  UNL1       -0.2668
     16 C          63.6582   88.1808   16.0445 C.3     1  UNL1        0.0942
     17 C          63.7337   86.7793   16.5735 C.3     1  UNL1        0.0476
     18 C          63.5853   85.6157   15.6386 C.ar    1  UNL1       -0.0205
     19 C          64.7051   85.2533   14.7087 C.ar    1  UNL1       -0.0042
     20 C          64.5569   84.0897   13.7738 C.ar    1  UNL1        0.0012
     21 C          63.2888   83.2886   13.7687 C.ar    1  UNL1        0.0176
     22 C          62.1690   83.6510   14.6986 C.ar    1  UNL1        0.0012
     23 C          62.3172   84.8145   15.6335 C.ar    1  UNL1       -0.0042
     24 C          63.1405   82.1250   12.8338 C.ar    1  UNL1        0.0814
     25 C          63.3662   82.3114   11.3626 C.ar    1  UNL1        0.0200
     26 C          63.2179   81.1479   10.4277 C.ar    1  UNL1        0.0145
     27 C          62.8438   79.7978   10.9639 C.ar    1  UNL1        0.0768
     28 CL         62.6955   78.6343   10.0289 Cl      1  UNL1       -0.0806
     29 C          62.6181   79.6114   12.4350 C.ar    1  UNL1        0.1101
     30 N          62.7664   80.7750   13.3700 N.ar    1  UNL1       -0.2430
@<TRIPOS>BOND
     1     3     4    1
     2     4     5   ar
     3     5     1    1
     4     1    16    1
     5    16    17    1
     6    17    18    1
     7    18    19   ar
     8    19    20   ar
     9    20    21   ar
    10    21    24    1
    11    24    25   ar
    12    25    26   ar
    13    26    27   ar
    14    27    28    1
    15    27    29   ar
    16    29    30   ar
    17    21    22   ar
    18    22    23   ar
    19     5     6   ar
    20     6     7   ar
    21     7     8   ar
    22     8     9   ar
    23     9    10    1
    24     9    11   ar
    25    11    12   ar
    26    12    13   ar
    27    13    14   ar
    28    14    15    2
    29    14     4   ar
    30    23    18   ar
    31    13     7   ar
    32    30    24   ar
    33     1     2    1
@<TRIPOS>MOLECULE
*****
 30 33 0 0 0
SMALL
GASTEIGER

@<TRIPOS>ATOM
      1 N          60.5137   90.8063    5.7158 N.pl3   1  UNL1       -0.3039
      2 H          61.0449   90.9760    6.5271 H       1  UNL1        0.1496
      3 C          58.3152   92.1244    4.1572 C.3     1  UNL1        0.1363
      4 N          59.7307   92.1976    3.6661 N.ar    1  UNL1       -0.2669
      5 C          60.8300   91.5386    4.4454 C.ar    1  UNL1        0.2002
      6 N          62.2454   91.6118    3.9544 N.ar    1  UNL1       -0.2150
      7 C          62.5617   92.3441    2.6840 C.ar    1  UNL1        0.0895
      8 C          63.9771   92.4174    2.1930 C.ar    1  UNL1        0.0307
      9 C          64.2933   93.1497    0.9227 C.ar    1  UNL1        0.0592
     10 CL         65.7088   93.2229    0.4316 Cl      1  UNL1       -0.0822
     11 C          63.1940   93.8087    0.1434 C.ar    1  UNL1        0.0116
     12 C          61.7786   93.7355    0.6344 C.ar    1  UNL1        0.0071
     13 C          61.4624   93.0032    1.9047 C.ar    1  UNL1        0.0740
     14 C          60.0469   92.9299    2.3958 C.ar    1  UNL1        0.2643
     15 O          58.9477   93.5890    1.6165 O.2     1  UNL1       -0.2668
     16 C          59.3881   89.8154    5.7500 C.3     1  UNL1        0.0942
     17 C          58.8505   89.3363    7.0658 C.3     1  UNL1        0.0476
     18 C          59.6612   88.3989    7.9108 C.ar    1  UNL1       -0.0205
     19 C          60.5002   88.9355    9.0325 C.ar    1  UNL1       -0.0042
     20 C          61.3109   87.9982    9.8775 C.ar    1  UNL1        0.0012
     21 C          61.2827   86.5242    9.6008 C.ar    1  UNL1        0.0176
     22 C          60.4437   85.9876    8.4791 C.ar    1  UNL1        0.0012
     23 C          59.6330   86.9249    7.6341 C.ar    1  UNL1       -0.0042
     24 C          62.0934   85.5868   10.4458 C.ar    1  UNL1        0.0814
     25 C          62.9833   84.5696    9.7950 C.ar    1  UNL1        0.0200
     26 C          63.7940   83.6322   10.6399 C.ar    1  UNL1        0.0145
     27 C          63.7149   83.7120   12.1357 C.ar    1  UNL1        0.0768
     28 CL         64.5257   82.7746   12.9807 Cl      1  UNL1       -0.0806
     29 C          62.8251   84.7291   12.7866 C.ar    1  UNL1        0.1101
     30 N          62.0143   85.6665   11.9415 N.ar    1  UNL1       -0.2430
@<TRIPOS>BOND
     1     3     4    1
     2     4     5   ar
     3     5     1    1
     4     1    16    1
     5    16    17    1
     6    17    18    1
     7    18    19   ar
     8    19    20   ar
     9    20    21   ar
    10    21    24    1
    11    24    25   ar
    12    25    26   ar
    13    26    27   ar
    14    27    28    1
    15    27    29   ar
    16    29    30   ar
    17    21    22   ar
    18    22    23   ar
    19     5     6   ar
    20     6     7   ar
    21     7     8   ar
    22     8     9   ar
    23     9    10    1
    24     9    11   ar
    25    11    12   ar
    26    12    13   ar
    27    13    14   ar
    28    14    15    2
    29    14     4   ar
    30    23    18   ar
    31    13     7   ar
    32    30    24   ar
    33     1     2    1
@<TRIPOS>MOLECULE
*****
 30 33 0 0 0
SMALL
GASTEIGER

@<TRIPOS>ATOM
      1 N          59.0974   89.2360    7.2709 N.pl3   1  UNL1       -0.3039
      2 H          58.1223   89.1624    7.3850 H       1  UNL1        0.1496
      3 C          59.5212   86.3572    8.0008 C.3     1  UNL1        0.1363
      4 N          60.2262   87.4369    8.7673 N.ar    1  UNL1       -0.2669
      5 C          60.0142   88.8763    8.4023 C.ar    1  UNL1        0.2002
      6 N          60.7191   89.9560    9.1687 N.ar    1  UNL1       -0.2150
      7 C          61.6360   89.5963   10.3001 C.ar    1  UNL1        0.0895
      8 C          62.3409   90.6759   11.0665 C.ar    1  UNL1        0.0307
      9 C          63.2577   90.3162   12.1979 C.ar    1  UNL1        0.0592
     10 CL         63.9626   91.3959   12.9644 Cl      1  UNL1       -0.0822
     11 C          63.4696   88.8768   12.5628 C.ar    1  UNL1        0.0116
     12 C          62.7647   87.7971   11.7965 C.ar    1  UNL1        0.0071
     13 C          61.8479   88.1569   10.6651 C.ar    1  UNL1        0.0740
     14 C          61.1430   87.0772    9.8986 C.ar    1  UNL1        0.2643
     15 O          61.3549   85.6378   10.2636 O.2     1  UNL1       -0.2668
     16 C          59.6662   89.7079    5.9656 C.3     1  UNL1        0.0942
     17 C          59.2645   91.0425    5.4112 C.3     1  UNL1        0.0476
     18 C          60.0993   91.6958    4.3499 C.ar    1  UNL1       -0.0205
     19 C          61.5362   91.3015    4.1774 C.ar    1  UNL1       -0.0042
     20 C          62.3710   91.9548    3.1161 C.ar    1  UNL1        0.0012
     21 C          61.7689   93.0023    2.2274 C.ar    1  UNL1        0.0176
     22 C          60.3320   93.3966    2.3998 C.ar    1  UNL1        0.0012
     23 C          59.4972   92.7434    3.4611 C.ar    1  UNL1       -0.0042
     24 C          62.6037   93.6557    1.1660 C.ar    1  UNL1        0.0814
     25 C          64.0916   93.7474    1.3328 C.ar    1  UNL1        0.0200
     26 C          64.9264   94.4007    0.2716 C.ar    1  UNL1        0.0145
     27 C          64.2733   94.9623   -0.9565 C.ar    1  UNL1        0.0768
     28 CL         65.1081   95.6156   -2.0178 Cl      1  UNL1       -0.0806
     29 C          62.7854   94.8705   -1.1233 C.ar    1  UNL1        0.1101
     30 N          61.9506   94.2172   -0.0620 N.ar    1  UNL1       -0.2430
@<TRIPOS>BOND
     1     3     4    1
     2     4     5   ar
     3     5     1    1
     4     1    16    1
     5    16    17    1
     6    17    18    1
     7    18    19   ar
     8    19    20   ar
     9    20    21   ar
    10    21    24    1
    11    24    25   ar
    12    25    26   ar
    13    26    27   ar
    14    27    28    1
    15    27    29   ar
    16    29    30   ar
    17    21    22   ar
    18    22    23   ar
    19     5     6   ar
    20     6     7   ar
    21     7     8   ar
    22     8     9   ar
    23     9    10    1
    24     9    11   ar
    25    11    12   ar
    26    12    13   ar
    27    13    14   ar
    28    14    15    2
    29    14     4   ar
    30    23    18   ar
    31    13     7   ar
    32    30    24   ar
    33     1     2    1
