@<TRIPOS>MOLECULE
*****
 45 48 0 0 0
SMALL
GASTEIGER

@<TRIPOS>ATOM
      1 C          56.7164   92.9613   -2.0864 C.3     1  UNL1        0.1085
      2 O          57.5790   91.7592   -1.8395 O.3     1  UNL1       -0.3826
      3 H          57.1026   90.9585   -2.1092 H       1  UNL1        0.2107
      4 C          57.8028   93.8496   -1.5569 C.3     1  UNL1        0.0484
      5 C          57.4814   95.2476   -1.1182 C.3     1  UNL1        0.0061
      6 C          58.5679   96.1360   -0.5887 C.3     1  UNL1        0.0217
      7 C          59.9758   95.6264   -0.4979 C.3     1  UNL1        0.0934
      8 N          60.2972   94.2284   -0.9365 N.am    1  UNL1       -0.2795
      9 C          61.7051   93.7189   -0.8457 C.2     1  UNL1        0.2253
     10 O          62.0265   92.3209   -1.2843 O.2     1  UNL1       -0.2749
     11 C          59.2108   93.3401   -1.4660 C.3     1  UNL1        0.0960
     12 C          62.7915   94.6073   -0.3162 C.3     1  UNL1        0.0806
     13 C          63.8776   95.2506   -1.1264 C.3     1  UNL1        0.0271
     14 C          64.7400   96.0492   -0.1944 C.3     1  UNL1        0.0785
     15 N          65.9441   96.8560   -0.5808 N.3     1  UNL1       -0.3203
     16 C          64.1868   95.8995    1.1918 C.3     1  UNL1        0.1250
     17 O          64.7407   96.5302    2.4350 O.3     1  UNL1       -0.3831
     18 C          62.9826   95.0083    1.1166 C.3     1  UNL1        0.0397
     19 H          66.0945   96.7817   -1.5869 H       1  UNL1        0.1189
     20 H          66.7634   96.5015   -0.0875 H       1  UNL1        0.1189
     21 H          65.5222   97.0584    2.2089 H       1  UNL1        0.2104
     22 C          55.9555   94.9054   -3.6329 C.ar    1  UNL1        0.0088
     23 C          55.0929   96.1074   -3.8797 C.ar    1  UNL1        0.0574
     24 CL         55.1947   96.8494   -5.1794 Cl      1  UNL1       -0.0823
     25 C          54.1286   96.5676   -2.8269 C.ar    1  UNL1        0.0114
     26 C          54.0269   95.8256   -1.5272 C.ar    1  UNL1        0.0006
     27 C          54.8895   94.6235   -1.2804 C.ar    1  UNL1       -0.0020
     28 C          55.8538   94.1634   -2.3332 C.ar    1  UNL1        0.0026
     29 C          59.3123   94.4421   -5.6987 C.ar    1  UNL1       -0.0222
     30 C          58.8485   93.5250   -6.7912 C.ar    1  UNL1       -0.0043
     31 C          57.4203   93.0679   -6.8310 C.ar    1  UNL1       -0.0003
     32 C          56.4560   93.5280   -5.7782 C.ar    1  UNL1       -0.0000
     33 C          56.9198   94.4452   -4.6857 C.ar    1  UNL1        0.0003
     34 C          58.3479   94.9022   -4.6460 C.ar    1  UNL1       -0.0042
     35 C          61.6847   94.3220   -4.6465 C.3     1  UNL1        0.0050
     36 C          60.7404   94.8992   -5.6590 C.3     1  UNL1        0.0264
     37 C          55.6300   92.0729   -2.6159 C.3     1  UNL1        0.0329
     38 C          55.9731   90.7332   -3.1968 C.3     1  UNL1        0.0241
     39 C          55.9291   90.5261   -4.6818 C.3     1  UNL1        0.0928
     40 N          54.6143   90.5478   -5.4035 N.am    1  UNL1       -0.2707
     41 C          53.7551   89.3187   -5.4339 C.2     1  UNL1        0.4017
     42 O          54.2107   88.0678   -4.7426 O.2     1  UNL1       -0.2264
     43 H          54.3153   91.3688   -5.8572 H       1  UNL1        0.1527
     44 O          52.4403   89.3404   -6.1556 O.3     1  UNL1       -0.4306
     45 C          52.3625   89.8705   -7.5567 C.3     1  UNL1        0.2573
@<TRIPOS>BOND
     1    35    36    1
     2    36    29    1
     3    29    30   ar
     4    30    31   ar
     5    31    32   ar
     6    32    33   ar
     7    33    22    1
     8    22    23   ar
     9    23    24    1
    10    23    25   ar
    11    25    26   ar
    12    26    27   ar
    13    27    28   ar
    14    28     1    1
    15     1     2    1
    16     1    37    1
    17    37    38    1
    18    38    39    1
    19    39    40    1
    20    40    41   am
    21    41    42    2
    22    41    44    1
    23    44    45    1
    24     4     1    1
    25     4     5    1
    26     5     6    1
    27     6     7    1
    28     7     8    1
    29     8     9   am
    30     9    10    2
    31    12     9    1
    32    12    13    1
    33    13    14    1
    34    14    15    1
    35    14    16    1
    36    16    17    1
    37    16    18    1
    38     8    11    1
    39    33    34   ar
    40    34    29   ar
    41    28    22   ar
    42    11     4    1
    43    18    12    1
    44     2     3    1
    45    40    43    1
    46    15    19    1
    47    15    20    1
    48    17    21    1
@<TRIPOS>MOLECULE
*****
 45 48 0 0 0
SMALL
GASTEIGER

@<TRIPOS>ATOM
      1 C          60.6202   89.0323   12.0558 C.3     1  UNL1        0.1085
      2 O          60.5475   90.0424   13.1623 O.3     1  UNL1       -0.3826
      3 H          59.9135   89.7428   13.8325 H       1  UNL1        0.2107
      4 C          61.6344   89.8809   11.3478 C.3     1  UNL1        0.0484
      5 C          61.5559   90.0595    9.8605 C.3     1  UNL1        0.0061
      6 C          62.5701   90.9082    9.1525 C.3     1  UNL1        0.0217
      7 C          63.6627   91.5781    9.9317 C.3     1  UNL1        0.0934
      8 N          63.7412   91.3995   11.4190 N.am    1  UNL1       -0.2795
      9 C          64.8340   92.0695   12.1982 C.2     1  UNL1        0.2253
     10 O          64.9125   91.8908   13.6855 O.2     1  UNL1       -0.2749
     11 C          62.7271   90.5509   12.1270 C.3     1  UNL1        0.0960
     12 C          65.8481   92.9180   11.4902 C.3     1  UNL1        0.0806
     13 C          65.7231   94.3846   11.2010 C.3     1  UNL1        0.0271
     14 C          66.9631   94.8220   10.4791 C.3     1  UNL1        0.0785
     15 N          67.2597   96.2116    9.9985 N.3     1  UNL1       -0.3203
     16 C          67.8545   93.6258   10.3222 C.3     1  UNL1        0.1250
     17 O          69.1989   93.6093    9.6572 O.3     1  UNL1       -0.3831
     18 C          67.1654   92.4491   10.9471 C.3     1  UNL1        0.0397
     19 H          66.4824   96.8272   10.2377 H       1  UNL1        0.1189
     20 H          67.3864   96.2016    8.9864 H       1  UNL1        0.1189
     21 H          69.4124   94.4998    9.3375 H       1  UNL1        0.2104
     22 C          61.6554   86.8754   11.0427 C.ar    1  UNL1        0.0088
     23 C          61.7282   85.8653    9.9362 C.ar    1  UNL1        0.0574
     24 CL         62.6906   84.7186   10.0297 Cl      1  UNL1       -0.0823
     25 C          60.8385   86.0019    8.7362 C.ar    1  UNL1        0.0114
     26 C          59.8761   87.1486    8.6428 C.ar    1  UNL1        0.0006
     27 C          59.8033   88.1588    9.7493 C.ar    1  UNL1       -0.0020
     28 C          60.6930   88.0221   10.9493 C.ar    1  UNL1        0.0026
     29 C          63.4696   85.3123   14.2074 C.ar    1  UNL1       -0.0222
     30 C          64.3243   86.4656   14.6426 C.ar    1  UNL1       -0.0043
     31 C          64.2893   87.7555   13.8778 C.ar    1  UNL1       -0.0003
     32 C          63.3997   87.8921   12.6779 C.ar    1  UNL1       -0.0000
     33 C          62.5451   86.7388   12.2427 C.ar    1  UNL1        0.0003
     34 C          62.5800   85.4489   13.0075 C.ar    1  UNL1       -0.0042
     35 C          62.5317   82.9290   14.6436 C.3     1  UNL1        0.0050
     36 C          63.5045   84.0224   14.9722 C.3     1  UNL1        0.0264
     37 C          59.6061   88.1837   12.7638 C.3     1  UNL1        0.0329
     38 C          58.7906   88.7645   13.8808 C.3     1  UNL1        0.0241
     39 C          59.2284   88.5799   15.3036 C.3     1  UNL1        0.0928
     40 N          60.5750   89.0726   15.7439 N.am    1  UNL1       -0.2707
     41 C          61.4904   88.1668   16.5130 C.2     1  UNL1        0.4017
     42 O          61.0591   86.7682   16.8418 O.2     1  UNL1       -0.2264
     43 H          60.8580   89.9905   15.5280 H       1  UNL1        0.1527
     44 O          62.8370   88.6595   16.9532 O.3     1  UNL1       -0.4306
     45 C          63.3405   89.9905   16.4789 C.3     1  UNL1        0.2573
@<TRIPOS>BOND
     1    35    36    1
     2    36    29    1
     3    29    30   ar
     4    30    31   ar
     5    31    32   ar
     6    32    33   ar
     7    33    22    1
     8    22    23   ar
     9    23    24    1
    10    23    25   ar
    11    25    26   ar
    12    26    27   ar
    13    27    28   ar
    14    28     1    1
    15     1     2    1
    16     1    37    1
    17    37    38    1
    18    38    39    1
    19    39    40    1
    20    40    41   am
    21    41    42    2
    22    41    44    1
    23    44    45    1
    24     4     1    1
    25     4     5    1
    26     5     6    1
    27     6     7    1
    28     7     8    1
    29     8     9   am
    30     9    10    2
    31    12     9    1
    32    12    13    1
    33    13    14    1
    34    14    15    1
    35    14    16    1
    36    16    17    1
    37    16    18    1
    38     8    11    1
    39    33    34   ar
    40    34    29   ar
    41    28    22   ar
    42    11     4    1
    43    18    12    1
    44     2     3    1
    45    40    43    1
    46    15    19    1
    47    15    20    1
    48    17    21    1
@<TRIPOS>MOLECULE
*****
 45 48 0 0 0
SMALL
GASTEIGER

@<TRIPOS>ATOM
      1 C          62.3810   87.4894   11.9472 C.3     1  UNL1        0.1085
      2 O          63.5436   87.4379   12.8934 O.3     1  UNL1       -0.3826
      3 H          63.5176   86.6067   13.3928 H       1  UNL1        0.2107
      4 C          62.8348   88.8345   11.4628 C.3     1  UNL1        0.0484
      5 C          62.3327   89.3691   10.1543 C.3     1  UNL1        0.0061
      6 C          62.7866   90.7143    9.6699 C.3     1  UNL1        0.0217
      7 C          63.7426   91.5248   10.4940 C.3     1  UNL1        0.0934
      8 N          64.2447   90.9902   11.8025 N.am    1  UNL1       -0.2795
      9 C          65.2006   91.8008   12.6266 C.2     1  UNL1        0.2253
     10 O          65.7027   91.2663   13.9351 O.2     1  UNL1       -0.2749
     11 C          63.7908   89.6451   12.2869 C.3     1  UNL1        0.0960
     12 C          65.6545   93.1459   12.1422 C.3     1  UNL1        0.0806
     13 C          65.9470   94.3399   13.0017 C.3     1  UNL1        0.0271
     14 C          66.3688   95.4652   12.1039 C.3     1  UNL1        0.0785
     15 N          66.7547   96.8465   12.5434 N.3     1  UNL1       -0.3203
     16 C          66.3370   94.9666   10.6896 C.3     1  UNL1        0.1250
     17 O          66.6855   95.7617    9.4664 O.3     1  UNL1       -0.3831
     18 C          65.8955   93.5332   10.7133 C.3     1  UNL1        0.0397
     19 H          66.6877   96.9113   13.5591 H       1  UNL1        0.1189
     20 H          66.1259   97.5270   12.1170 H       1  UNL1        0.1189
     21 H          66.9390   96.6611    9.7268 H       1  UNL1        0.2104
     22 C          61.1172   86.5471    9.8820 C.ar    1  UNL1        0.0088
     23 C          59.9546   86.5986    8.9357 C.ar    1  UNL1        0.0574
     24 CL         59.8536   85.6047    7.8168 Cl      1  UNL1       -0.0823
     25 C          58.8928   87.6442    9.1082 C.ar    1  UNL1        0.0114
     26 C          58.9938   88.6381   10.2271 C.ar    1  UNL1        0.0006
     27 C          60.1566   88.5865   11.1735 C.ar    1  UNL1       -0.0020
     28 C          61.2182   87.5410   11.0009 C.ar    1  UNL1        0.0026
     29 C          63.2710   83.2613   10.4433 C.ar    1  UNL1       -0.0222
     30 C          64.3023   83.4106    9.3644 C.ar    1  UNL1       -0.0043
     31 C          64.2719   84.6054    8.4580 C.ar    1  UNL1       -0.0003
     32 C          63.2103   85.6509    8.6305 C.ar    1  UNL1       -0.0000
     33 C          62.1790   85.5016    9.7094 C.ar    1  UNL1        0.0003
     34 C          62.2093   84.3068   10.6158 C.ar    1  UNL1       -0.0042
     35 C          64.3654   81.9490   12.4003 C.3     1  UNL1        0.0050
     36 C          63.3013   82.0665   11.3497 C.3     1  UNL1        0.0264
     37 C          61.9271   86.1443   12.4316 C.3     1  UNL1        0.0329
     38 C          62.8642   85.2740   13.2154 C.3     1  UNL1        0.0241
     39 C          62.3205   84.2907   14.2089 C.3     1  UNL1        0.0928
     40 N          61.7175   84.7776   15.4932 N.am    1  UNL1       -0.2707
     41 C          62.5563   85.5441   16.4724 C.2     1  UNL1        0.4017
     42 O          63.9982   85.8235   16.1674 O.2     1  UNL1       -0.2264
     43 H          60.7712   84.5942   15.6934 H       1  UNL1        0.1527
     44 O          61.9534   86.0311   17.7566 O.3     1  UNL1       -0.4306
     45 C          62.7315   86.9526   18.6485 C.3     1  UNL1        0.2573
@<TRIPOS>BOND
     1    35    36    1
     2    36    29    1
     3    29    30   ar
     4    30    31   ar
     5    31    32   ar
     6    32    33   ar
     7    33    22    1
     8    22    23   ar
     9    23    24    1
    10    23    25   ar
    11    25    26   ar
    12    26    27   ar
    13    27    28   ar
    14    28     1    1
    15     1     2    1
    16     1    37    1
    17    37    38    1
    18    38    39    1
    19    39    40    1
    20    40    41   am
    21    41    42    2
    22    41    44    1
    23    44    45    1
    24     4     1    1
    25     4     5    1
    26     5     6    1
    27     6     7    1
    28     7     8    1
    29     8     9   am
    30     9    10    2
    31    12     9    1
    32    12    13    1
    33    13    14    1
    34    14    15    1
    35    14    16    1
    36    16    17    1
    37    16    18    1
    38     8    11    1
    39    33    34   ar
    40    34    29   ar
    41    28    22   ar
    42    11     4    1
    43    18    12    1
    44     2     3    1
    45    40    43    1
    46    15    19    1
    47    15    20    1
    48    17    21    1
@<TRIPOS>MOLECULE
*****
 45 48 0 0 0
SMALL
GASTEIGER

@<TRIPOS>ATOM
      1 C          62.6566   89.3404   10.4639 C.3     1  UNL1        0.1085
      2 O          63.6750   89.3486    9.3627 O.3     1  UNL1       -0.3826
      3 H          63.8998   90.2648    9.1370 H       1  UNL1        0.2107
      4 C          62.6480   87.8406   10.4448 C.3     1  UNL1        0.0484
      5 C          62.5263   87.1078    9.1416 C.3     1  UNL1        0.0061
      6 C          62.5177   85.6079    9.1225 C.3     1  UNL1        0.0217
      7 C          62.6307   84.8409   10.4066 C.3     1  UNL1        0.0934
      8 N          62.7524   85.5736   11.7097 N.am    1  UNL1       -0.2795
      9 C          62.8655   84.8065   12.9938 C.2     1  UNL1        0.2253
     10 O          62.9871   85.5393   14.2970 O.2     1  UNL1       -0.2749
     11 C          62.7610   87.0735   11.7289 C.3     1  UNL1        0.0960
     12 C          62.8569   83.3067   12.9747 C.3     1  UNL1        0.0806
     13 C          62.8566   82.4096   14.1769 C.3     1  UNL1        0.0271
     14 C          62.8466   80.9890   13.6951 C.3     1  UNL1        0.0785
     15 N          62.8431   79.7644   14.5613 N.3     1  UNL1       -0.3203
     16 C          62.8406   81.0082   12.1953 C.3     1  UNL1        0.1250
     17 O          62.8301   79.8061   11.2982 O.3     1  UNL1       -0.3831
     18 C          62.8470   82.4406   11.7500 C.3     1  UNL1        0.0397
     19 H          62.8487   80.0420   15.5427 H       1  UNL1        0.1189
     20 H          63.6720   79.2044   14.3617 H       1  UNL1        0.1189
     21 H          62.8277   79.0000   11.8378 H       1  UNL1        0.2104
     22 C          60.2176   88.9511   11.2702 C.ar    1  UNL1        0.0088
     23 C          59.1992   88.9428   12.3714 C.ar    1  UNL1        0.0574
     24 CL         57.7787   88.5617   12.0764 Cl      1  UNL1       -0.0823
     25 C          59.6012   89.3157   13.7677 C.ar    1  UNL1        0.0114
     26 C          61.0216   89.6968   14.0626 C.ar    1  UNL1        0.0006
     27 C          62.0401   89.7050   12.9614 C.ar    1  UNL1       -0.0020
     28 C          61.6381   89.3322   11.5652 C.ar    1  UNL1        0.0026
     29 C          59.5193   89.2138    7.3723 C.ar    1  UNL1       -0.0222
     30 C          59.0117   87.8326    7.0816 C.ar    1  UNL1       -0.0043
     31 C          58.9060   86.8242    8.1870 C.ar    1  UNL1       -0.0003
     32 C          59.3080   87.1970    9.5832 C.ar    1  UNL1       -0.0000
     33 C          59.8156   88.5782    9.8740 C.ar    1  UNL1        0.0003
     34 C          59.9213   89.5866    8.7685 C.ar    1  UNL1       -0.0042
     35 C          58.3831   90.7505    5.6124 C.3     1  UNL1        0.0050
     36 C          59.6250   90.2222    6.2669 C.3     1  UNL1        0.0264
     37 C          62.6652   90.8403   10.4831 C.3     1  UNL1        0.0329
     38 C          63.8851   91.5891   10.0346 C.3     1  UNL1        0.0241
     39 C          64.6689   92.4045   11.0198 C.3     1  UNL1        0.0928
     40 N          65.3705   93.6520   10.5709 N.am    1  UNL1       -0.2707
     41 C          66.8657   93.6708   10.4536 C.2     1  UNL1        0.4017
     42 O          67.6595   92.4419   10.7851 O.2     1  UNL1       -0.2264
     43 H          64.8495   94.4586   10.3533 H       1  UNL1        0.1527
     44 O          67.5673   94.9183   10.0047 O.3     1  UNL1       -0.4306
     45 C          67.4916   95.3460    8.5689 C.3     1  UNL1        0.2573
@<TRIPOS>BOND
     1    35    36    1
     2    36    29    1
     3    29    30   ar
     4    30    31   ar
     5    31    32   ar
     6    32    33   ar
     7    33    22    1
     8    22    23   ar
     9    23    24    1
    10    23    25   ar
    11    25    26   ar
    12    26    27   ar
    13    27    28   ar
    14    28     1    1
    15     1     2    1
    16     1    37    1
    17    37    38    1
    18    38    39    1
    19    39    40    1
    20    40    41   am
    21    41    42    2
    22    41    44    1
    23    44    45    1
    24     4     1    1
    25     4     5    1
    26     5     6    1
    27     6     7    1
    28     7     8    1
    29     8     9   am
    30     9    10    2
    31    12     9    1
    32    12    13    1
    33    13    14    1
    34    14    15    1
    35    14    16    1
    36    16    17    1
    37    16    18    1
    38     8    11    1
    39    33    34   ar
    40    34    29   ar
    41    28    22   ar
    42    11     4    1
    43    18    12    1
    44     2     3    1
    45    40    43    1
    46    15    19    1
    47    15    20    1
    48    17    21    1
@<TRIPOS>MOLECULE
*****
 45 48 0 0 0
SMALL
GASTEIGER

@<TRIPOS>ATOM
      1 C          62.6578   89.3730   10.4841 C.3     1  UNL1        0.1085
      2 O          63.6812   89.3927    9.3877 O.3     1  UNL1       -0.3826
      3 H          63.9020   90.3113    9.1680 H       1  UNL1        0.2107
      4 C          62.6575   87.8733   10.4568 C.3     1  UNL1        0.0484
      5 C          62.5435   87.1470    9.1493 C.3     1  UNL1        0.0061
      6 C          62.5432   85.6472    9.1220 C.3     1  UNL1        0.0217
      7 C          62.6568   84.8737   10.4022 C.3     1  UNL1        0.0934
      8 N          62.7707   85.6000   11.7097 N.am    1  UNL1       -0.2795
      9 C          62.8843   84.8265   12.9899 C.2     1  UNL1        0.2253
     10 O          62.9982   85.5528   14.2974 O.2     1  UNL1       -0.2749
     11 C          62.7711   87.0997   11.7370 C.3     1  UNL1        0.0960
     12 C          62.8840   83.3268   12.9626 C.3     1  UNL1        0.0806
     13 C          62.9198   82.4232   14.1593 C.3     1  UNL1        0.0271
     14 C          62.9057   81.0052   13.6700 C.3     1  UNL1        0.0785
     15 N          62.9315   79.7758   14.5290 N.3     1  UNL1       -0.3203
     16 C          62.8612   81.0325   12.1709 C.3     1  UNL1        0.1250
     17 O          62.8347   79.8353   11.2677 O.3     1  UNL1       -0.3831
     18 C          62.8478   82.4673   11.7337 C.3     1  UNL1        0.0397
     19 H          62.9606   80.0482   15.5116 H       1  UNL1        0.1189
     20 H          63.7583   79.2219   14.3051 H       1  UNL1        0.1189
     21 H          62.8509   79.0263   11.8026 H       1  UNL1        0.2104
     22 C          60.2169   88.9680   11.2767 C.ar    1  UNL1        0.0088
     23 C          59.1935   88.9482   12.3732 C.ar    1  UNL1        0.0574
     24 CL         57.7761   88.5630   12.0692 Cl      1  UNL1       -0.0823
     25 C          59.5876   89.3136   13.7737 C.ar    1  UNL1        0.0114
     26 C          61.0051   89.6987   14.0776 C.ar    1  UNL1        0.0006
     27 C          62.0285   89.7185   12.9811 C.ar    1  UNL1       -0.0020
     28 C          61.6344   89.3532   11.5807 C.ar    1  UNL1        0.0026
     29 C          59.5368   89.2529    7.3772 C.ar    1  UNL1       -0.0222
     30 C          59.0348   87.8721    7.0754 C.ar    1  UNL1       -0.0043
     31 C          58.9267   86.8565    8.1740 C.ar    1  UNL1       -0.0003
     32 C          59.3208   87.2218    9.5745 C.ar    1  UNL1       -0.0000
     33 C          59.8228   88.6026    9.8763 C.ar    1  UNL1        0.0003
     34 C          59.9309   89.6182    8.7776 C.ar    1  UNL1       -0.0042
     35 C          58.4078   90.7597    5.5870 C.3     1  UNL1        0.0050
     36 C          59.6449   90.2684    6.2786 C.3     1  UNL1        0.0264
     37 C          62.6582   90.8727   10.5115 C.3     1  UNL1        0.0329
     38 C          63.9543   91.6207   10.6137 C.3     1  UNL1        0.0241
     39 C          64.4774   92.0347   11.9572 C.3     1  UNL1        0.0928
     40 N          65.9503   92.2333   12.1600 N.am    1  UNL1       -0.2707
     41 C          66.4819   92.5636   13.5231 C.2     1  UNL1        0.4017
     42 O          65.5406   92.6952   14.6837 O.2     1  UNL1       -0.2264
     43 H          66.5681   92.1469   11.3983 H       1  UNL1        0.1527
     44 O          67.9548   92.7622   13.7259 O.3     1  UNL1       -0.4306
     45 C          68.5139   92.8629   15.1142 C.3     1  UNL1        0.2573
@<TRIPOS>BOND
     1    35    36    1
     2    36    29    1
     3    29    30   ar
     4    30    31   ar
     5    31    32   ar
     6    32    33   ar
     7    33    22    1
     8    22    23   ar
     9    23    24    1
    10    23    25   ar
    11    25    26   ar
    12    26    27   ar
    13    27    28   ar
    14    28     1    1
    15     1     2    1
    16     1    37    1
    17    37    38    1
    18    38    39    1
    19    39    40    1
    20    40    41   am
    21    41    42    2
    22    41    44    1
    23    44    45    1
    24     4     1    1
    25     4     5    1
    26     5     6    1
    27     6     7    1
    28     7     8    1
    29     8     9   am
    30     9    10    2
    31    12     9    1
    32    12    13    1
    33    13    14    1
    34    14    15    1
    35    14    16    1
    36    16    17    1
    37    16    18    1
    38     8    11    1
    39    33    34   ar
    40    34    29   ar
    41    28    22   ar
    42    11     4    1
    43    18    12    1
    44     2     3    1
    45    40    43    1
    46    15    19    1
    47    15    20    1
    48    17    21    1
@<TRIPOS>MOLECULE
*****
 45 48 0 0 0
SMALL
GASTEIGER

@<TRIPOS>ATOM
      1 C          62.3090   87.1833   11.9831 C.3     1  UNL1        0.1085
      2 O          63.3130   86.2584   12.6046 O.3     1  UNL1       -0.3826
      3 H          63.0266   85.3399   12.4807 H       1  UNL1        0.2107
      4 C          63.1337   88.3627   12.4061 C.3     1  UNL1        0.0484
      5 C          63.8011   88.3681   13.7494 C.3     1  UNL1        0.0061
      6 C          64.6258   89.5476   14.1723 C.3     1  UNL1        0.0217
      7 C          64.7831   90.7215   13.2520 C.3     1  UNL1        0.0934
      8 N          64.1156   90.7161   11.9086 N.am    1  UNL1       -0.2795
      9 C          64.2729   91.8901   10.9883 C.2     1  UNL1        0.2253
     10 O          63.6054   91.8847    9.6450 O.2     1  UNL1       -0.2749
     11 C          63.2909   89.5367   11.4857 C.3     1  UNL1        0.0960
     12 C          65.0976   93.0695   11.4112 C.3     1  UNL1        0.0806
     13 C          65.4330   94.2604   10.5632 C.3     1  UNL1        0.0271
     14 C          66.2744   95.1920   11.3844 C.3     1  UNL1        0.0785
     15 N          66.8332   96.5077   10.9298 N.3     1  UNL1       -0.3203
     16 C          66.4589   94.5768   12.7399 C.3     1  UNL1        0.1250
     17 O          67.2346   95.1694   13.8789 O.3     1  UNL1       -0.3831
     18 C          65.7316   93.2651   12.7565 C.3     1  UNL1        0.0397
     19 H          66.5533   96.6805    9.9643 H       1  UNL1        0.1189
     20 H          67.8511   96.4837   10.9896 H       1  UNL1        0.1189
     21 H          67.6063   96.0232   13.6073 H       1  UNL1        0.2104
     22 C          60.9884   87.9987    9.8995 C.ar    1  UNL1        0.0088
     23 C          59.9844   88.9237    9.2780 C.ar    1  UNL1        0.0574
     24 CL         59.6679   88.8140    7.8159 Cl      1  UNL1       -0.0823
     25 C          59.2968   89.9584   10.1186 C.ar    1  UNL1        0.0114
     26 C          59.6133   90.0681   11.5807 C.ar    1  UNL1        0.0006
     27 C          60.6174   89.1431   12.2022 C.ar    1  UNL1       -0.0020
     28 C          61.3049   88.1084   11.3616 C.ar    1  UNL1        0.0026
     29 C          61.5737   85.1135    7.2380 C.ar    1  UNL1       -0.0222
     30 C          63.0510   84.8945    7.3777 C.ar    1  UNL1       -0.0043
     31 C          63.8408   85.7102    8.3579 C.ar    1  UNL1       -0.0003
     32 C          63.1533   86.7449    9.1985 C.ar    1  UNL1       -0.0000
     33 C          61.6760   86.9639    9.0589 C.ar    1  UNL1        0.0003
     34 C          60.8862   86.1483    8.0786 C.ar    1  UNL1       -0.0042
     35 C          61.4143   83.8547    4.9709 C.3     1  UNL1        0.0050
     36 C          60.7839   84.2979    6.2578 C.3     1  UNL1        0.0264
     37 C          61.4843   86.0040   11.5602 C.3     1  UNL1        0.0329
     38 C          62.0899   84.6317   11.5458 C.3     1  UNL1        0.0241
     39 C          62.5167   83.9868   12.8311 C.3     1  UNL1        0.0928
     40 N          61.8759   84.3956   14.1243 N.am    1  UNL1       -0.2707
     41 C          62.7295   84.7284   15.3120 C.2     1  UNL1        0.4017
     42 O          64.2239   84.6524   15.2065 O.2     1  UNL1       -0.2264
     43 H          60.8951   84.4455   14.1935 H       1  UNL1        0.1527
     44 O          62.0888   85.1372   16.6052 O.3     1  UNL1       -0.4306
     45 C          62.6417   86.2942   17.3833 C.3     1  UNL1        0.2573
@<TRIPOS>BOND
     1    35    36    1
     2    36    29    1
     3    29    30   ar
     4    30    31   ar
     5    31    32   ar
     6    32    33   ar
     7    33    22    1
     8    22    23   ar
     9    23    24    1
    10    23    25   ar
    11    25    26   ar
    12    26    27   ar
    13    27    28   ar
    14    28     1    1
    15     1     2    1
    16     1    37    1
    17    37    38    1
    18    38    39    1
    19    39    40    1
    20    40    41   am
    21    41    42    2
    22    41    44    1
    23    44    45    1
    24     4     1    1
    25     4     5    1
    26     5     6    1
    27     6     7    1
    28     7     8    1
    29     8     9   am
    30     9    10    2
    31    12     9    1
    32    12    13    1
    33    13    14    1
    34    14    15    1
    35    14    16    1
    36    16    17    1
    37    16    18    1
    38     8    11    1
    39    33    34   ar
    40    34    29   ar
    41    28    22   ar
    42    11     4    1
    43    18    12    1
    44     2     3    1
    45    40    43    1
    46    15    19    1
    47    15    20    1
    48    17    21    1
@<TRIPOS>MOLECULE
*****
 45 48 0 0 0
SMALL
GASTEIGER

@<TRIPOS>ATOM
      1 C          62.3109   89.4761   10.6648 C.3     1  UNL1        0.1085
      2 O          63.4927   89.5440    9.7435 O.3     1  UNL1       -0.3826
      3 H          63.7962   90.4627    9.6741 H       1  UNL1        0.2107
      4 C          62.2311   87.9933   10.4530 C.3     1  UNL1        0.0484
      5 C          61.7677   87.4478    9.1347 C.3     1  UNL1        0.0061
      6 C          61.6879   85.9649    8.9229 C.3     1  UNL1        0.0217
      7 C          62.0713   85.0276   10.0294 C.3     1  UNL1        0.0934
      8 N          62.5346   85.5730   11.3477 N.am    1  UNL1       -0.2795
      9 C          62.9181   84.6356   12.4542 C.2     1  UNL1        0.2253
     10 O          63.3814   85.1810   13.7724 O.2     1  UNL1       -0.2749
     11 C          62.6145   87.0558   11.5595 C.3     1  UNL1        0.0960
     12 C          62.8382   83.1528   12.2424 C.3     1  UNL1        0.0806
     13 C          63.1321   82.4279   10.9625 C.3     1  UNL1        0.0271
     14 C          62.9259   80.9616   11.2024 C.3     1  UNL1        0.0785
     15 N          63.1089   79.8686   10.1916 N.3     1  UNL1       -0.3203
     16 C          62.5046   80.7803   12.6305 C.3     1  UNL1        0.1250
     17 O          62.1923   79.4741   13.2986 O.3     1  UNL1       -0.3831
     18 C          62.4504   82.1345   13.2733 C.3     1  UNL1        0.0397
     19 H          63.3990   80.2736    9.3015 H       1  UNL1        0.1189
     20 H          62.2280   79.3696   10.0670 H       1  UNL1        0.1189
     21 H          62.3042   78.7506   12.6622 H       1  UNL1        0.2104
     22 C          61.3326   89.4518   13.0715 C.ar    1  UNL1        0.0088
     23 C          60.1509   89.3838   13.9928 C.ar    1  UNL1        0.0574
     24 CL         60.3544   89.4275   15.4783 Cl      1  UNL1       -0.0823
     25 C          58.7655   89.2721   13.4286 C.ar    1  UNL1        0.0114
     26 C          58.5619   89.2285   11.9431 C.ar    1  UNL1        0.0006
     27 C          59.7438   89.2964   11.0218 C.ar    1  UNL1       -0.0020
     28 C          61.1291   89.4081   11.5860 C.ar    1  UNL1        0.0026
     29 C          64.7545   91.0203   14.3288 C.ar    1  UNL1       -0.0222
     30 C          65.4887   89.7868   14.7641 C.ar    1  UNL1       -0.0043
     31 C          64.8376   88.4417   14.6352 C.ar    1  UNL1       -0.0003
     32 C          63.4523   88.3300   14.0710 C.ar    1  UNL1       -0.0000
     33 C          62.7181   89.5634   13.6357 C.ar    1  UNL1        0.0003
     34 C          63.3692   90.9086   13.7646 C.ar    1  UNL1       -0.0042
     35 C          66.5197   92.5682   15.4414 C.3     1  UNL1        0.0050
     36 C          65.4056   92.3654   14.4577 C.3     1  UNL1        0.0264
     37 C          62.3908   90.9588   10.8766 C.3     1  UNL1        0.0329
     38 C          63.4189   91.7671   10.1418 C.3     1  UNL1        0.0241
     39 C          64.6105   92.3091   10.8741 C.3     1  UNL1        0.0928
     40 N          65.3588   93.4859   10.3217 N.am    1  UNL1       -0.2707
     41 C          66.8109   93.6718   10.6482 C.2     1  UNL1        0.4017
     42 O          67.5149   92.6807   11.5271 O.2     1  UNL1       -0.2264
     43 H          64.8968   94.1364    9.7449 H       1  UNL1        0.1527
     44 O          67.5592   94.8486   10.0959 O.3     1  UNL1       -0.4306
     45 C          67.5390   95.1255    8.6218 C.3     1  UNL1        0.2573
@<TRIPOS>BOND
     1    35    36    1
     2    36    29    1
     3    29    30   ar
     4    30    31   ar
     5    31    32   ar
     6    32    33   ar
     7    33    22    1
     8    22    23   ar
     9    23    24    1
    10    23    25   ar
    11    25    26   ar
    12    26    27   ar
    13    27    28   ar
    14    28     1    1
    15     1     2    1
    16     1    37    1
    17    37    38    1
    18    38    39    1
    19    39    40    1
    20    40    41   am
    21    41    42    2
    22    41    44    1
    23    44    45    1
    24     4     1    1
    25     4     5    1
    26     5     6    1
    27     6     7    1
    28     7     8    1
    29     8     9   am
    30     9    10    2
    31    12     9    1
    32    12    13    1
    33    13    14    1
    34    14    15    1
    35    14    16    1
    36    16    17    1
    37    16    18    1
    38     8    11    1
    39    33    34   ar
    40    34    29   ar
    41    28    22   ar
    42    11     4    1
    43    18    12    1
    44     2     3    1
    45    40    43    1
    46    15    19    1
    47    15    20    1
    48    17    21    1
@<TRIPOS>MOLECULE
*****
 45 48 0 0 0
SMALL
GASTEIGER

@<TRIPOS>ATOM
      1 C          62.1219   87.6394   11.5105 C.3     1  UNL1        0.1085
      2 O          63.1674   86.8782   12.2704 O.3     1  UNL1       -0.3826
      3 H          62.9029   85.9476   12.3404 H       1  UNL1        0.2107
      4 C          62.9254   88.8966   11.6643 C.3     1  UNL1        0.0484
      5 C          63.0105   89.8757   10.5312 C.3     1  UNL1        0.0061
      6 C          63.8141   91.1330   10.6850 C.3     1  UNL1        0.0217
      7 C          64.5325   91.4111   11.9720 C.3     1  UNL1        0.0934
      8 N          64.4475   90.4320   13.1052 N.am    1  UNL1       -0.2795
      9 C          65.1660   90.7102   14.3922 C.2     1  UNL1        0.2253
     10 O          65.0810   89.7310   15.5254 O.2     1  UNL1       -0.2749
     11 C          63.6440   89.1748   12.9514 C.3     1  UNL1        0.0960
     12 C          65.9696   91.9674   14.5461 C.3     1  UNL1        0.0806
     13 C          67.0433   92.2083   15.5653 C.3     1  UNL1        0.0271
     14 C          67.5778   93.5943   15.3568 C.3     1  UNL1        0.0785
     15 N          68.6649   94.2495   16.1561 N.3     1  UNL1       -0.3203
     16 C          66.8343   94.2099   14.2087 C.3     1  UNL1        0.1250
     17 O          67.0474   95.5889   13.6583 O.3     1  UNL1       -0.3831
     18 C          65.8404   93.2045   13.7076 C.3     1  UNL1        0.0397
     19 H          68.9941   93.6049   16.8748 H       1  UNL1        0.1189
     20 H          68.3006   95.0938   16.5976 H       1  UNL1        0.1189
     21 H          67.7480   96.0330   14.1611 H       1  UNL1        0.2104
     22 C          60.7842   88.0508    9.3216 C.ar    1  UNL1        0.0088
     23 C          59.7387   88.8120    8.5617 C.ar    1  UNL1        0.0574
     24 CL         59.4466   88.4622    7.1326 Cl      1  UNL1       -0.0823
     25 C          58.9853   89.9232    9.2309 C.ar    1  UNL1        0.0114
     26 C          59.2774   90.2730   10.6600 C.ar    1  UNL1        0.0006
     27 C          60.3229   89.5117   11.4199 C.ar    1  UNL1       -0.0020
     28 C          61.0763   88.4007   10.7507 C.ar    1  UNL1        0.0026
     29 C          61.5997   84.9492    6.9839 C.ar    1  UNL1       -0.0222
     30 C          63.0445   84.7175    7.3140 C.ar    1  UNL1       -0.0043
     31 C          63.7358   85.5970    8.3133 C.ar    1  UNL1       -0.0003
     32 C          62.9825   86.7081    8.9825 C.ar    1  UNL1       -0.0000
     33 C          61.5377   86.9397    8.6524 C.ar    1  UNL1        0.0003
     34 C          60.8464   86.0603    7.6531 C.ar    1  UNL1       -0.0042
     35 C          61.5565   83.7833    4.6625 C.3     1  UNL1        0.0050
     36 C          60.9084   84.0697    5.9846 C.3     1  UNL1        0.0264
     37 C          61.3184   86.3822   11.3567 C.3     1  UNL1        0.0329
     38 C          61.7665   85.1186   12.0295 C.3     1  UNL1        0.0241
     39 C          62.5356   84.0891   11.2558 C.3     1  UNL1        0.0928
     40 N          62.6966   82.7031   11.8062 N.am    1  UNL1       -0.2707
     41 C          63.7200   82.4323   12.8689 C.2     1  UNL1        0.4017
     42 O          64.5824   83.5476   13.3813 O.2     1  UNL1       -0.2264
     43 H          62.1306   81.9711   11.4699 H       1  UNL1        0.1527
     44 O          63.8810   81.0462   13.4192 O.3     1  UNL1       -0.4306
     45 C          62.6718   80.1980   13.6809 C.3     1  UNL1        0.2573
@<TRIPOS>BOND
     1    35    36    1
     2    36    29    1
     3    29    30   ar
     4    30    31   ar
     5    31    32   ar
     6    32    33   ar
     7    33    22    1
     8    22    23   ar
     9    23    24    1
    10    23    25   ar
    11    25    26   ar
    12    26    27   ar
    13    27    28   ar
    14    28     1    1
    15     1     2    1
    16     1    37    1
    17    37    38    1
    18    38    39    1
    19    39    40    1
    20    40    41   am
    21    41    42    2
    22    41    44    1
    23    44    45    1
    24     4     1    1
    25     4     5    1
    26     5     6    1
    27     6     7    1
    28     7     8    1
    29     8     9   am
    30     9    10    2
    31    12     9    1
    32    12    13    1
    33    13    14    1
    34    14    15    1
    35    14    16    1
    36    16    17    1
    37    16    18    1
    38     8    11    1
    39    33    34   ar
    40    34    29   ar
    41    28    22   ar
    42    11     4    1
    43    18    12    1
    44     2     3    1
    45    40    43    1
    46    15    19    1
    47    15    20    1
    48    17    21    1
@<TRIPOS>MOLECULE
*****
 45 48 0 0 0
SMALL
GASTEIGER

@<TRIPOS>ATOM
      1 C          62.3630   87.5341   11.9303 C.3     1  UNL1        0.1085
      2 O          63.5289   87.4982   12.8734 O.3     1  UNL1       -0.3826
      3 H          63.5067   86.6736   13.3837 H       1  UNL1        0.2107
      4 C          62.8116   88.8740   11.4268 C.3     1  UNL1        0.0484
      5 C          62.2730   89.4076   10.1325 C.3     1  UNL1        0.0061
      6 C          62.7216   90.7475    9.6291 C.3     1  UNL1        0.0217
      7 C          63.7087   91.5538   10.4199 C.3     1  UNL1        0.0934
      8 N          64.2473   91.0202   11.7143 N.am    1  UNL1       -0.2795
      9 C          65.2344   91.8266   12.5051 C.2     1  UNL1        0.2253
     10 O          65.7730   91.2930   13.7994 O.2     1  UNL1       -0.2749
     11 C          63.7987   89.6803   12.2177 C.3     1  UNL1        0.0960
     12 C          65.6829   93.1665   12.0017 C.3     1  UNL1        0.0806
     13 C          65.8714   93.5501   10.5639 C.3     1  UNL1        0.0271
     14 C          66.3267   94.9788   10.5212 C.3     1  UNL1        0.0785
     15 N          66.6350   95.7693    9.2843 N.3     1  UNL1       -0.3203
     16 C          66.4197   95.4780   11.9326 C.3     1  UNL1        0.1250
     17 O          66.8372   96.8554   12.3549 O.3     1  UNL1       -0.3831
     18 C          66.0218   94.3579   12.8476 C.3     1  UNL1        0.0397
     19 H          66.4876   95.1846    8.4616 H       1  UNL1        0.1189
     20 H          67.6065   96.0788    9.3119 H       1  UNL1        0.1189
     21 H          67.0421   97.3863   11.5693 H       1  UNL1        0.2104
     22 C          61.1108   86.5802    9.8634 C.ar    1  UNL1        0.0088
     23 C          59.9450   86.6161    8.9202 C.ar    1  UNL1        0.0574
     24 CL         59.8586   85.6262    7.7966 Cl      1  UNL1       -0.0823
     25 C          58.8655   87.6419    9.1007 C.ar    1  UNL1        0.0114
     26 C          58.9519   88.6318   10.2244 C.ar    1  UNL1        0.0006
     27 C          60.1178   88.5958   11.1676 C.ar    1  UNL1       -0.0020
     28 C          61.1972   87.5701   10.9871 C.ar    1  UNL1        0.0026
     29 C          63.3227   83.3294   10.4020 C.ar    1  UNL1       -0.0222
     30 C          64.3490   83.5028    9.3220 C.ar    1  UNL1       -0.0043
     31 C          64.2960   84.7019    8.4225 C.ar    1  UNL1       -0.0003
     32 C          63.2166   85.7277    8.6029 C.ar    1  UNL1       -0.0000
     33 C          62.1902   85.5544    9.6829 C.ar    1  UNL1        0.0003
     34 C          62.2433   84.3552   10.5825 C.ar    1  UNL1       -0.0042
     35 C          62.9765   80.7822   10.7788 C.3     1  UNL1        0.0050
     36 C          63.3757   82.1303   11.3016 C.3     1  UNL1        0.0264
     37 C          61.9145   86.1942   12.4337 C.3     1  UNL1        0.0329
     38 C          62.7922   85.4102   13.3638 C.3     1  UNL1        0.0241
     39 C          62.1986   84.7351   14.5645 C.3     1  UNL1        0.0928
     40 N          61.8996   83.2656   14.5273 N.am    1  UNL1       -0.2707
     41 C          63.0125   82.2700   14.6686 C.2     1  UNL1        0.4017
     42 O          64.4246   82.7438   14.8472 O.2     1  UNL1       -0.2264
     43 H          60.9729   82.9547   14.4101 H       1  UNL1        0.1527
     44 O          62.7135   80.8006   14.6315 O.3     1  UNL1       -0.4306
     45 C          61.4389   80.3100   14.0111 C.3     1  UNL1        0.2573
@<TRIPOS>BOND
     1    35    36    1
     2    36    29    1
     3    29    30   ar
     4    30    31   ar
     5    31    32   ar
     6    32    33   ar
     7    33    22    1
     8    22    23   ar
     9    23    24    1
    10    23    25   ar
    11    25    26   ar
    12    26    27   ar
    13    27    28   ar
    14    28     1    1
    15     1     2    1
    16     1    37    1
    17    37    38    1
    18    38    39    1
    19    39    40    1
    20    40    41   am
    21    41    42    2
    22    41    44    1
    23    44    45    1
    24     4     1    1
    25     4     5    1
    26     5     6    1
    27     6     7    1
    28     7     8    1
    29     8     9   am
    30     9    10    2
    31    12     9    1
    32    12    13    1
    33    13    14    1
    34    14    15    1
    35    14    16    1
    36    16    17    1
    37    16    18    1
    38     8    11    1
    39    33    34   ar
    40    34    29   ar
    41    28    22   ar
    42    11     4    1
    43    18    12    1
    44     2     3    1
    45    40    43    1
    46    15    19    1
    47    15    20    1
    48    17    21    1
