@<TRIPOS>MOLECULE
*****
 32 36 0 0 0
SMALL
GASTEIGER

@<TRIPOS>ATOM
      1 C          64.1747   88.0209   14.5331 C.ar    1  UNL1        0.0177
      2 C          64.0894   87.5586   15.9575 C.ar    1  UNL1        0.0046
      3 C          63.6297   86.1648   16.2673 C.ar    1  UNL1        0.0374
      4 C          63.2553   85.2334   15.1527 C.ar    1  UNL1        0.1478
      5 N          62.7709   83.8137   15.1511 N.ar    1  UNL1       -0.2249
      6 C          62.5568   83.3987   13.7256 C.ar    1  UNL1        0.1180
      7 C          62.9089   84.5619   12.8464 C.ar    1  UNL1        0.0845
      8 N          63.3405   85.6958   13.7284 N.ar    1  UNL1       -0.2888
      9 C          63.8002   87.0895   13.4185 C.ar    1  UNL1        0.0814
     10 C          65.5538   92.2024   13.6035 C.ar    1  UNL1        0.0536
     11 C          66.2575   91.3969   14.6552 C.ar    1  UNL1        0.0045
     12 C          65.7978   90.0031   14.9651 C.ar    1  UNL1        0.0002
     13 C          64.6344   89.4148   14.2232 C.ar    1  UNL1        0.0015
     14 C          63.9307   90.2202   13.1715 C.ar    1  UNL1        0.0002
     15 C          64.3904   91.6141   12.8617 C.ar    1  UNL1        0.0045
     16 C          67.0825   95.2096    7.6144 C.3     1  UNL1        0.0897
     17 N          66.8153   94.8062    9.0342 N.3     1  UNL1       -0.2686
     18 C          66.3556   93.4125    9.3441 C.3     1  UNL1        0.0939
     19 C          66.0883   93.0091   10.7639 C.3     1  UNL1        0.1110
     20 N          66.2808   93.9995   11.8739 N.am    1  UNL1       -0.2732
     21 C          66.0136   93.5961   13.2937 C.2     1  UNL1        0.2491
     22 O          66.2061   94.5866   14.4036 O.2     1  UNL1       -0.2699
     23 C          66.7405   95.3933   11.5640 C.3     1  UNL1        0.1110
     24 C          67.0078   95.7966   10.1442 C.3     1  UNL1        0.0939
     25 C          62.8412   84.5868   11.3481 C.ar    1  UNL1        0.0177
     26 C          63.7043   83.6612   10.5428 C.ar    1  UNL1        0.0022
     27 C          63.6366   83.6862    9.0446 C.ar    1  UNL1        0.0103
     28 C          62.7058   84.6366    8.3515 C.ar    1  UNL1        0.0684
     29 C          61.8427   85.5621    9.1568 C.ar    1  UNL1        0.0103
     30 C          61.9104   85.5372   10.6551 C.ar    1  UNL1        0.0022
     31 C          62.6381   84.6615    6.8533 C.1     1  UNL1        0.1004
     32 N          62.5704   84.6864    5.3550 N.1     1  UNL1       -0.1908
@<TRIPOS>BOND
     1    16    17    1
     2    17    18    1
     3    18    19    1
     4    19    20    1
     5    20    21   am
     6    21    22    2
     7    21    10    1
     8    10    11   ar
     9    11    12   ar
    10    12    13   ar
    11    13     1    1
    12     1     2   ar
    13     2     3   ar
    14     3     4   ar
    15     4     5   ar
    16     5     6   ar
    17     6     7   ar
    18     7    25    1
    19    25    26   ar
    20    26    27   ar
    21    27    28   ar
    22    28    31    1
    23    31    32    3
    24    28    29   ar
    25    29    30   ar
    26     7     8   ar
    27     8     9   ar
    28    13    14   ar
    29    14    15   ar
    30    20    23    1
    31    23    24    1
    32    24    17    1
    33    15    10   ar
    34     9     1   ar
    35     8     4   ar
    36    30    25   ar
@<TRIPOS>MOLECULE
*****
 32 36 0 0 0
SMALL
GASTEIGER

@<TRIPOS>ATOM
      1 C          61.7043   86.4970   10.1097 C.ar    1  UNL1        0.0177
      2 C          61.8643   85.0384    9.7985 C.ar    1  UNL1        0.0046
      3 C          62.6106   84.1468   10.7461 C.ar    1  UNL1        0.0374
      4 C          63.1969   84.7138   12.0049 C.ar    1  UNL1        0.1478
      5 N          63.9782   84.0847   13.1204 N.ar    1  UNL1       -0.2249
      6 C          64.3010   85.1546   14.1209 C.ar    1  UNL1        0.1180
      7 C          63.7193   86.4448   13.6239 C.ar    1  UNL1        0.0845
      8 N          63.0370   86.1724   12.3162 N.ar    1  UNL1       -0.2888
      9 C          62.2907   87.0639   11.3685 C.ar    1  UNL1        0.0814
     10 C          59.4653   89.1719    7.2668 C.ar    1  UNL1        0.0536
     11 C          59.4479   87.6851    7.0688 C.ar    1  UNL1        0.0045
     12 C          60.1942   86.7935    8.0164 C.ar    1  UNL1        0.0002
     13 C          60.9580   87.3886    9.1620 C.ar    1  UNL1        0.0015
     14 C          60.9755   88.8754    9.3600 C.ar    1  UNL1        0.0002
     15 C          60.2291   89.7671    8.4124 C.ar    1  UNL1        0.0045
     16 C          61.7042   93.1739    2.1461 C.3     1  UNL1        0.0897
     17 N          60.9579   92.3963    3.1894 N.3     1  UNL1       -0.2686
     18 C          61.7042   91.5047    4.1370 C.3     1  UNL1        0.0939
     19 C          60.9579   90.7271    5.1803 C.3     1  UNL1        0.1110
     20 N          59.4653   90.8411    5.2759 N.am    1  UNL1       -0.2732
     21 C          58.7190   90.0635    6.3191 C.2     1  UNL1        0.2491
     22 O          57.2264   90.1775    6.4147 O.2     1  UNL1       -0.2699
     23 C          58.7190   91.7327    4.3282 C.3     1  UNL1        0.1110
     24 C          59.4653   92.5103    3.2850 C.3     1  UNL1        0.0939
     25 C          63.8050   87.7741   14.3135 C.ar    1  UNL1        0.0177
     26 C          63.4042   87.8991   15.7536 C.ar    1  UNL1        0.0022
     27 C          63.4899   89.2285   16.4432 C.ar    1  UNL1        0.0103
     28 C          63.9762   90.4328   15.6928 C.ar    1  UNL1        0.0684
     29 C          64.3769   90.3077   14.2528 C.ar    1  UNL1        0.0103
     30 C          64.2913   88.9784   13.5631 C.ar    1  UNL1        0.0022
     31 C          64.0618   91.7621   16.3825 C.1     1  UNL1        0.1004
     32 N          64.1475   93.0914   17.0721 N.1     1  UNL1       -0.1908
@<TRIPOS>BOND
     1    16    17    1
     2    17    18    1
     3    18    19    1
     4    19    20    1
     5    20    21   am
     6    21    22    2
     7    21    10    1
     8    10    11   ar
     9    11    12   ar
    10    12    13   ar
    11    13     1    1
    12     1     2   ar
    13     2     3   ar
    14     3     4   ar
    15     4     5   ar
    16     5     6   ar
    17     6     7   ar
    18     7    25    1
    19    25    26   ar
    20    26    27   ar
    21    27    28   ar
    22    28    31    1
    23    31    32    3
    24    28    29   ar
    25    29    30   ar
    26     7     8   ar
    27     8     9   ar
    28    13    14   ar
    29    14    15   ar
    30    20    23    1
    31    23    24    1
    32    24    17    1
    33    15    10   ar
    34     9     1   ar
    35     8     4   ar
    36    30    25   ar
@<TRIPOS>MOLECULE
*****
 32 36 0 0 0
SMALL
GASTEIGER

@<TRIPOS>ATOM
      1 C          61.8866   89.5644   10.3887 C.ar    1  UNL1        0.0177
      2 C          61.5315   88.3153   11.1393 C.ar    1  UNL1        0.0046
      3 C          60.5383   87.3505   10.5624 C.ar    1  UNL1        0.0374
      4 C          59.9004   87.6349    9.2350 C.ar    1  UNL1        0.1478
      5 N          58.8949   86.8752    8.4212 N.ar    1  UNL1       -0.2249
      6 C          58.6287   87.6549    7.1678 C.ar    1  UNL1        0.1180
      7 C          59.4696   88.8964    7.2068 C.ar    1  UNL1        0.0845
      8 N          60.2555   88.8840    8.4844 N.ar    1  UNL1       -0.2888
      9 C          61.2487   89.8488    9.0613 C.ar    1  UNL1        0.0814
     10 C          64.8661   92.4589   12.1193 C.ar    1  UNL1        0.0536
     11 C          64.1532   91.4905   13.0160 C.ar    1  UNL1        0.0045
     12 C          63.1601   90.5257   12.4392 C.ar    1  UNL1        0.0002
     13 C          62.8798   90.5293   10.9656 C.ar    1  UNL1        0.0015
     14 C          63.5927   91.4976   10.0689 C.ar    1  UNL1        0.0002
     15 C          64.5859   92.4625   10.6458 C.ar    1  UNL1        0.0045
     16 C          69.4391   91.7118   17.1966 C.3     1  UNL1        0.0897
     17 N          68.5441   92.1398   16.0715 N.3     1  UNL1       -0.2686
     18 C          67.5510   91.1750   15.4947 C.3     1  UNL1        0.0939
     19 C          66.6560   91.6030   14.3695 C.3     1  UNL1        0.1110
     20 N          66.7542   92.9957   13.8213 N.am    1  UNL1       -0.2732
     21 C          65.8593   93.4237   12.6962 C.2     1  UNL1        0.2491
     22 O          65.9575   94.8165   12.1480 O.2     1  UNL1       -0.2699
     23 C          67.7474   93.9605   14.3982 C.3     1  UNL1        0.1110
     24 C          68.6423   93.5325   15.5233 C.3     1  UNL1        0.0939
     25 C          59.5164   89.9631    6.1533 C.ar    1  UNL1        0.0177
     26 C          60.8244   90.3353    5.5203 C.ar    1  UNL1        0.0022
     27 C          60.8712   91.4019    4.4668 C.ar    1  UNL1        0.0103
     28 C          59.6101   92.0965    4.0461 C.ar    1  UNL1        0.0684
     29 C          58.3020   91.7243    4.6790 C.ar    1  UNL1        0.0103
     30 C          58.2553   90.6576    5.7325 C.ar    1  UNL1        0.0022
     31 C          59.6569   93.1631    2.9925 C.1     1  UNL1        0.1004
     32 N          59.7037   94.2298    1.9389 N.1     1  UNL1       -0.1908
@<TRIPOS>BOND
     1    16    17    1
     2    17    18    1
     3    18    19    1
     4    19    20    1
     5    20    21   am
     6    21    22    2
     7    21    10    1
     8    10    11   ar
     9    11    12   ar
    10    12    13   ar
    11    13     1    1
    12     1     2   ar
    13     2     3   ar
    14     3     4   ar
    15     4     5   ar
    16     5     6   ar
    17     6     7   ar
    18     7    25    1
    19    25    26   ar
    20    26    27   ar
    21    27    28   ar
    22    28    31    1
    23    31    32    3
    24    28    29   ar
    25    29    30   ar
    26     7     8   ar
    27     8     9   ar
    28    13    14   ar
    29    14    15   ar
    30    20    23    1
    31    23    24    1
    32    24    17    1
    33    15    10   ar
    34     9     1   ar
    35     8     4   ar
    36    30    25   ar
@<TRIPOS>MOLECULE
*****
 32 36 0 0 0
SMALL
GASTEIGER

@<TRIPOS>ATOM
      1 C          59.9117   89.5204    6.9122 C.ar    1  UNL1        0.0177
      2 C          58.9974   88.3314    6.9007 C.ar    1  UNL1        0.0046
      3 C          58.9627   87.4006    8.0764 C.ar    1  UNL1        0.0374
      4 C          59.8422   87.6590    9.2637 C.ar    1  UNL1        0.1478
      5 N          60.0236   86.9222   10.5578 N.ar    1  UNL1       -0.2249
      6 C          61.0499   87.6560   11.3690 C.ar    1  UNL1        0.1180
      7 C          61.5029   88.8462   10.5763 C.ar    1  UNL1        0.0845
      8 N          60.7565   88.8480    9.2752 N.ar    1  UNL1       -0.2888
      9 C          60.7913   89.7787    8.0995 C.ar    1  UNL1        0.0814
     10 C          60.0160   92.3128    3.3848 C.ar    1  UNL1        0.0536
     11 C          61.2699   91.6209    3.8311 C.ar    1  UNL1        0.0045
     12 C          61.2351   90.6901    5.0068 C.ar    1  UNL1        0.0002
     13 C          59.9465   90.4512    5.7364 C.ar    1  UNL1        0.0015
     14 C          58.6926   91.1431    5.2902 C.ar    1  UNL1        0.0002
     15 C          58.7274   92.0739    4.1144 C.ar    1  UNL1        0.0045
     16 C          65.3118   95.1782    0.0692 C.3     1  UNL1        0.0897
     17 N          63.9966   94.6945    0.6041 N.3     1  UNL1       -0.2686
     18 C          63.9618   93.7638    1.7799 C.3     1  UNL1        0.0939
     19 C          62.6465   93.2801    2.3149 C.3     1  UNL1        0.1110
     20 N          61.3661   93.7272    1.6741 N.am    1  UNL1       -0.2732
     21 C          60.0508   93.2436    2.2091 C.2     1  UNL1        0.2491
     22 O          58.7704   93.6907    1.5683 O.2     1  UNL1       -0.2699
     23 C          61.4009   94.6580    0.4983 C.3     1  UNL1        0.1110
     24 C          62.7162   95.1416   -0.0367 C.3     1  UNL1        0.0939
     25 C          62.5232   89.8571   11.0089 C.ar    1  UNL1        0.0177
     26 C          63.0484   89.8388   12.4138 C.ar    1  UNL1        0.0022
     27 C          64.0687   90.8497   12.8463 C.ar    1  UNL1        0.0103
     28 C          64.5638   91.8789   11.8740 C.ar    1  UNL1        0.0684
     29 C          64.0386   91.8972   10.4690 C.ar    1  UNL1        0.0103
     30 C          63.0183   90.8863   10.0365 C.ar    1  UNL1        0.0022
     31 C          65.5841   92.8898   12.3065 C.1     1  UNL1        0.1004
     32 N          66.6043   93.9008   12.7390 N.1     1  UNL1       -0.1908
@<TRIPOS>BOND
     1    16    17    1
     2    17    18    1
     3    18    19    1
     4    19    20    1
     5    20    21   am
     6    21    22    2
     7    21    10    1
     8    10    11   ar
     9    11    12   ar
    10    12    13   ar
    11    13     1    1
    12     1     2   ar
    13     2     3   ar
    14     3     4   ar
    15     4     5   ar
    16     5     6   ar
    17     6     7   ar
    18     7    25    1
    19    25    26   ar
    20    26    27   ar
    21    27    28   ar
    22    28    31    1
    23    31    32    3
    24    28    29   ar
    25    29    30   ar
    26     7     8   ar
    27     8     9   ar
    28    13    14   ar
    29    14    15   ar
    30    20    23    1
    31    23    24    1
    32    24    17    1
    33    15    10   ar
    34     9     1   ar
    35     8     4   ar
    36    30    25   ar
@<TRIPOS>MOLECULE
*****
 32 36 0 0 0
SMALL
GASTEIGER

@<TRIPOS>ATOM
      1 C          61.7193   94.7401   -2.3444 C.ar    1  UNL1        0.0177
      2 C          63.0142   95.2032   -2.9432 C.ar    1  UNL1        0.0046
      3 C          64.2885   95.0800   -2.1616 C.ar    1  UNL1        0.0374
      4 C          64.2678   94.4938   -0.7810 C.ar    1  UNL1        0.1478
      5 N          65.3564   94.2473    0.2212 N.ar    1  UNL1       -0.2249
      6 C          64.7341   93.6319    1.4394 C.ar    1  UNL1        0.1180
      7 C          63.2610   93.4981    1.1901 C.ar    1  UNL1        0.0845
      8 N          62.9728   94.0307   -0.1822 N.ar    1  UNL1       -0.2888
      9 C          61.6986   94.1539   -0.9639 C.ar    1  UNL1        0.0814
     10 C          57.8963   95.1096   -4.6894 C.ar    1  UNL1        0.0536
     11 C          58.2843   93.7902   -4.0903 C.ar    1  UNL1        0.0045
     12 C          59.5585   93.6671   -3.3087 C.ar    1  UNL1        0.0002
     13 C          60.4449   94.8633   -3.1261 C.ar    1  UNL1        0.0015
     14 C          60.0571   96.1826   -3.7251 C.ar    1  UNL1        0.0002
     15 C          58.7827   96.3058   -4.5068 C.ar    1  UNL1        0.0045
     16 C          51.5256   96.7332   -2.6830 C.3     1  UNL1        0.0897
     17 N          52.7997   96.3581   -3.3800 N.3     1  UNL1       -0.2686
     18 C          54.0739   96.2350   -2.5983 C.3     1  UNL1        0.0939
     19 C          55.3481   95.8598   -3.2954 C.3     1  UNL1        0.1110
     20 N          55.3480   95.6078   -4.7740 N.am    1  UNL1       -0.2732
     21 C          56.6221   95.2327   -5.4711 C.2     1  UNL1        0.2491
     22 O          56.6219   94.9807   -6.9498 O.2     1  UNL1       -0.2699
     23 C          54.0736   95.7309   -5.5557 C.3     1  UNL1        0.1110
     24 C          52.7995   96.1061   -4.8587 C.3     1  UNL1        0.0939
     25 C          62.2531   92.9311    2.1454 C.ar    1  UNL1        0.0177
     26 C          62.6410   91.8156    3.0703 C.ar    1  UNL1        0.0022
     27 C          61.6330   91.2487    4.0256 C.ar    1  UNL1        0.0103
     28 C          60.2372   91.7970    4.0560 C.ar    1  UNL1        0.0684
     29 C          59.8494   92.9125    3.1312 C.ar    1  UNL1        0.0103
     30 C          60.8573   93.4795    2.1759 C.ar    1  UNL1        0.0022
     31 C          59.2293   91.2301    5.0113 C.1     1  UNL1        0.1004
     32 N          58.2213   90.6631    5.9666 N.1     1  UNL1       -0.1908
@<TRIPOS>BOND
     1    16    17    1
     2    17    18    1
     3    18    19    1
     4    19    20    1
     5    20    21   am
     6    21    22    2
     7    21    10    1
     8    10    11   ar
     9    11    12   ar
    10    12    13   ar
    11    13     1    1
    12     1     2   ar
    13     2     3   ar
    14     3     4   ar
    15     4     5   ar
    16     5     6   ar
    17     6     7   ar
    18     7    25    1
    19    25    26   ar
    20    26    27   ar
    21    27    28   ar
    22    28    31    1
    23    31    32    3
    24    28    29   ar
    25    29    30   ar
    26     7     8   ar
    27     8     9   ar
    28    13    14   ar
    29    14    15   ar
    30    20    23    1
    31    23    24    1
    32    24    17    1
    33    15    10   ar
    34     9     1   ar
    35     8     4   ar
    36    30    25   ar
@<TRIPOS>MOLECULE
*****
 32 36 0 0 0
SMALL
GASTEIGER

@<TRIPOS>ATOM
      1 C          59.8635   89.4885    6.6817 C.ar    1  UNL1        0.0177
      2 C          59.0403   88.2542    6.4609 C.ar    1  UNL1        0.0046
      3 C          59.0549   87.1512    7.4773 C.ar    1  UNL1        0.0374
      4 C          59.8927   87.2825    8.7146 C.ar    1  UNL1        0.1478
      5 N          60.1063   86.3674    9.8838 N.ar    1  UNL1       -0.2249
      6 C          61.0615   87.0363   10.8273 C.ar    1  UNL1        0.1180
      7 C          61.4383   88.3646   10.2411 C.ar    1  UNL1        0.0845
      8 N          60.7159   88.5168    8.9354 N.ar    1  UNL1       -0.2888
      9 C          60.7013   89.6198    7.9190 C.ar    1  UNL1        0.0814
     10 C          59.8198   92.7976    3.6324 C.ar    1  UNL1        0.0536
     11 C          61.0979   92.0728    3.9344 C.ar    1  UNL1        0.0045
     12 C          61.1124   90.9698    4.9508 C.ar    1  UNL1        0.0002
     13 C          59.8489   90.5915    5.6652 C.ar    1  UNL1        0.0015
     14 C          58.5709   91.3163    5.3633 C.ar    1  UNL1        0.0002
     15 C          58.5563   92.4194    4.3468 C.ar    1  UNL1        0.0045
     16 C          58.6969   92.6545   -3.1475 C.3     1  UNL1        0.0897
     17 N          58.9740   92.9660   -1.7067 N.3     1  UNL1       -0.2686
     18 C          58.9885   91.8630   -0.6903 C.3     1  UNL1        0.0939
     19 C          59.2656   92.1745    0.7507 C.3     1  UNL1        0.1110
     20 N          59.5282   93.5891    1.1751 N.am    1  UNL1       -0.2732
     21 C          59.8053   93.9006    2.6160 C.2     1  UNL1        0.2491
     22 O          60.0679   95.3151    3.0404 O.2     1  UNL1       -0.2699
     23 C          59.5137   94.6921    0.1586 C.3     1  UNL1        0.1110
     24 C          59.2366   94.3806   -1.2822 C.3     1  UNL1        0.0939
     25 C          62.3733   89.3652   10.8532 C.ar    1  UNL1        0.0177
     26 C          62.9147   89.1391   12.2337 C.ar    1  UNL1        0.0022
     27 C          63.8497   90.1396   12.8458 C.ar    1  UNL1        0.0103
     28 C          64.2433   91.3663   12.0775 C.ar    1  UNL1        0.0684
     29 C          63.7019   91.5923   10.6970 C.ar    1  UNL1        0.0103
     30 C          62.7669   90.5918   10.0849 C.ar    1  UNL1        0.0022
     31 C          65.1783   92.3668   12.6896 C.1     1  UNL1        0.1004
     32 N          66.1133   93.3674   13.3017 N.1     1  UNL1       -0.1908
@<TRIPOS>BOND
     1    16    17    1
     2    17    18    1
     3    18    19    1
     4    19    20    1
     5    20    21   am
     6    21    22    2
     7    21    10    1
     8    10    11   ar
     9    11    12   ar
    10    12    13   ar
    11    13     1    1
    12     1     2   ar
    13     2     3   ar
    14     3     4   ar
    15     4     5   ar
    16     5     6   ar
    17     6     7   ar
    18     7    25    1
    19    25    26   ar
    20    26    27   ar
    21    27    28   ar
    22    28    31    1
    23    31    32    3
    24    28    29   ar
    25    29    30   ar
    26     7     8   ar
    27     8     9   ar
    28    13    14   ar
    29    14    15   ar
    30    20    23    1
    31    23    24    1
    32    24    17    1
    33    15    10   ar
    34     9     1   ar
    35     8     4   ar
    36    30    25   ar
@<TRIPOS>MOLECULE
*****
 32 36 0 0 0
SMALL
GASTEIGER

@<TRIPOS>ATOM
      1 C          62.4212   95.0095   -2.7754 C.ar    1  UNL1        0.0177
      2 C          63.7394   95.5642   -3.2276 C.ar    1  UNL1        0.0046
      3 C          64.8926   95.6316   -2.2707 C.ar    1  UNL1        0.0374
      4 C          64.7275   95.1442   -0.8617 C.ar    1  UNL1        0.1478
      5 N          65.6775   95.0851    0.2977 N.ar    1  UNL1       -0.2249
      6 C          64.9463   94.4938    1.4663 C.ar    1  UNL1        0.1180
      7 C          63.5445   94.1876    1.0292 C.ar    1  UNL1        0.0845
      8 N          63.4093   94.5895   -0.4096 N.ar    1  UNL1       -0.2888
      9 C          62.2561   94.5222   -1.3665 C.ar    1  UNL1        0.0814
     10 C          58.9615   94.8073   -5.6460 C.ar    1  UNL1        0.0536
     11 C          58.7234   95.1631   -4.2083 C.ar    1  UNL1        0.0045
     12 C          59.8767   95.2305   -3.2515 C.ar    1  UNL1        0.0002
     13 C          61.2679   94.9421   -3.7323 C.ar    1  UNL1        0.0015
     14 C          61.5060   94.5863   -5.1699 C.ar    1  UNL1        0.0002
     15 C          60.3528   94.5189   -6.1268 C.ar    1  UNL1        0.0045
     16 C          54.1813   89.9603   -6.5975 C.3     1  UNL1        0.0897
     17 N          55.0880   91.1552   -6.5989 N.3     1  UNL1       -0.2686
     18 C          56.2412   91.2226   -5.6421 C.3     1  UNL1        0.0939
     19 C          57.1480   92.4175   -5.6434 C.3     1  UNL1        0.1110
     20 N          56.9015   93.5450   -6.6015 N.am    1  UNL1       -0.2732
     21 C          57.8083   94.7399   -6.6028 C.2     1  UNL1        0.2491
     22 O          57.5618   95.8674   -7.5609 O.2     1  UNL1       -0.2699
     23 C          55.7482   93.4776   -7.5583 C.3     1  UNL1        0.1110
     24 C          54.8415   92.2827   -7.5570 C.3     1  UNL1        0.0939
     25 C          62.4670   93.5851    1.8813 C.ar    1  UNL1        0.0177
     26 C          62.7695   92.3948    2.7425 C.ar    1  UNL1        0.0022
     27 C          61.6920   91.7923    3.5946 C.ar    1  UNL1        0.0103
     28 C          60.3120   92.3801    3.5855 C.ar    1  UNL1        0.0684
     29 C          60.0095   93.5703    2.7242 C.ar    1  UNL1        0.0103
     30 C          61.0870   94.1728    1.8721 C.ar    1  UNL1        0.0022
     31 C          59.2345   91.7776    4.4375 C.1     1  UNL1        0.1004
     32 N          58.1570   91.1751    5.2896 N.1     1  UNL1       -0.1908
@<TRIPOS>BOND
     1    16    17    1
     2    17    18    1
     3    18    19    1
     4    19    20    1
     5    20    21   am
     6    21    22    2
     7    21    10    1
     8    10    11   ar
     9    11    12   ar
    10    12    13   ar
    11    13     1    1
    12     1     2   ar
    13     2     3   ar
    14     3     4   ar
    15     4     5   ar
    16     5     6   ar
    17     6     7   ar
    18     7    25    1
    19    25    26   ar
    20    26    27   ar
    21    27    28   ar
    22    28    31    1
    23    31    32    3
    24    28    29   ar
    25    29    30   ar
    26     7     8   ar
    27     8     9   ar
    28    13    14   ar
    29    14    15   ar
    30    20    23    1
    31    23    24    1
    32    24    17    1
    33    15    10   ar
    34     9     1   ar
    35     8     4   ar
    36    30    25   ar
@<TRIPOS>MOLECULE
*****
 32 36 0 0 0
SMALL
GASTEIGER

@<TRIPOS>ATOM
      1 C          63.9295   89.5607   15.4747 C.ar    1  UNL1        0.0177
      2 C          63.4862   89.9007   16.8668 C.ar    1  UNL1        0.0046
      3 C          62.9449   88.8278   17.7644 C.ar    1  UNL1        0.0374
      4 C          62.8469   87.4150   17.2701 C.ar    1  UNL1        0.1478
      5 N          62.3589   86.1551   17.9218 N.ar    1  UNL1       -0.2249
      6 C          62.5006   85.0366   16.9325 C.ar    1  UNL1        0.1180
      7 C          63.0763   85.6052   15.6694 C.ar    1  UNL1        0.0845
      8 N          63.2903   87.0751   15.8781 N.ar    1  UNL1       -0.2888
      9 C          63.8316   88.1479   14.9804 C.ar    1  UNL1        0.0814
     10 C          65.5535   92.7794   12.7814 C.ar    1  UNL1        0.0536
     11 C          64.4345   91.8995   12.3084 C.ar    1  UNL1        0.0045
     12 C          63.8932   90.8266   13.2062 C.ar    1  UNL1        0.0002
     13 C          64.4709   90.6336   14.5770 C.ar    1  UNL1        0.0015
     14 C          65.5898   91.5135   15.0500 C.ar    1  UNL1        0.0002
     15 C          66.1312   92.5863   14.1522 C.ar    1  UNL1        0.0045
     16 C          69.4652   92.3792    7.1434 C.3     1  UNL1        0.0897
     17 N          68.6226   92.7475    8.3285 N.3     1  UNL1       -0.2686
     18 C          68.0813   91.6746    9.2262 C.3     1  UNL1        0.0939
     19 C          67.2387   92.0429   10.4113 C.3     1  UNL1        0.1110
     20 N          66.9374   93.4839   10.6986 N.am    1  UNL1       -0.2732
     21 C          66.0948   93.8522   11.8837 C.2     1  UNL1        0.2491
     22 O          65.7935   95.2932   12.1710 O.2     1  UNL1       -0.2699
     23 C          67.4787   94.5568    9.8008 C.3     1  UNL1        0.1110
     24 C          68.3213   94.1885    8.6157 C.3     1  UNL1        0.0939
     25 C          63.3839   84.8384   14.4174 C.ar    1  UNL1        0.0177
     26 C          64.2887   83.6433   14.4731 C.ar    1  UNL1        0.0022
     27 C          64.5963   82.8765   13.2211 C.ar    1  UNL1        0.0103
     28 C          63.9992   83.3048   11.9135 C.ar    1  UNL1        0.0684
     29 C          63.0944   84.5000   11.8578 C.ar    1  UNL1        0.0103
     30 C          62.7868   85.2667   13.1098 C.ar    1  UNL1        0.0022
     31 C          64.3068   82.5381   10.6615 C.1     1  UNL1        0.1004
     32 N          64.6145   81.7714    9.4095 N.1     1  UNL1       -0.1908
@<TRIPOS>BOND
     1    16    17    1
     2    17    18    1
     3    18    19    1
     4    19    20    1
     5    20    21   am
     6    21    22    2
     7    21    10    1
     8    10    11   ar
     9    11    12   ar
    10    12    13   ar
    11    13     1    1
    12     1     2   ar
    13     2     3   ar
    14     3     4   ar
    15     4     5   ar
    16     5     6   ar
    17     6     7   ar
    18     7    25    1
    19    25    26   ar
    20    26    27   ar
    21    27    28   ar
    22    28    31    1
    23    31    32    3
    24    28    29   ar
    25    29    30   ar
    26     7     8   ar
    27     8     9   ar
    28    13    14   ar
    29    14    15   ar
    30    20    23    1
    31    23    24    1
    32    24    17    1
    33    15    10   ar
    34     9     1   ar
    35     8     4   ar
    36    30    25   ar
