@<TRIPOS>MOLECULE
*****
 35 39 0 0 0
SMALL
GASTEIGER

@<TRIPOS>ATOM
      1 C          64.2594   91.4233   12.9816 C.ar    1  UNL1        0.1515
      2 N          64.9900   92.7171   12.7761 N.ar    1  UNL1       -0.2248
      3 C          65.9940   92.8631   13.8809 C.ar    1  UNL1        0.1173
      4 C          66.9943   93.9365   14.1928 C.ar    1  UNL1        0.0238
      5 C          67.8845   93.8062   15.3930 C.ar    1  UNL1        0.0223
      6 C          67.7744   92.6025   16.2813 C.ar    1  UNL1        0.1006
      7 N          66.7742   91.5291   15.9694 N.ar    1  UNL1       -0.2248
      8 C          65.8840   91.6594   14.7692 C.ar    1  UNL1        0.1666
      9 N          64.8120   90.7696   14.2134 N.ar    1  UNL1       -0.2754
     10 N          64.2449   92.0306   10.0437 N.pl3   1  UNL1       -0.3425
     11 C          63.1607   91.1824   10.6396 C.ar    1  UNL1        0.1282
     12 N          62.0692   90.6379    9.7666 N.ar    1  UNL1       -0.2295
     13 C          60.9850   89.7897   10.3624 C.ar    1  UNL1        0.1003
     14 C          60.9923   89.4861   11.8313 C.ar    1  UNL1        0.0209
     15 C          62.0838   90.0306   12.7044 C.ar    1  UNL1        0.0074
     16 C          63.1680   90.8788   12.1085 C.ar    1  UNL1        0.0657
     17 H          64.2402   92.2299    9.0796 H       1  UNL1        0.1437
     18 H          64.9613   92.3880   10.6167 H       1  UNL1        0.1437
     19 C          64.3700   89.4566   14.7884 C.ar    1  UNL1        0.0667
     20 C          63.5734   89.4243   16.0589 C.ar    1  UNL1        0.0173
     21 C          63.1315   88.1112   16.6340 C.ar    1  UNL1       -0.0023
     22 C          63.4862   86.8304   15.9385 C.ar    1  UNL1       -0.0130
     23 C          64.2829   86.8627   14.6680 C.ar    1  UNL1       -0.0023
     24 C          64.7248   88.1757   14.0929 C.ar    1  UNL1        0.0173
     25 C          63.0443   85.5174   16.5136 C.3     1  UNL1        0.1116
     26 C          63.1662   84.2632   15.6999 C.2     1  UNL1        0.2305
     27 O          64.2348   83.2611   16.0219 O.2     1  UNL1       -0.2744
     28 N          62.2193   84.0112   14.5641 N.am    1  UNL1       -0.2836
     29 H          61.5179   84.6690   14.3527 H       1  UNL1        0.1549
     30 C          62.3411   82.7570   13.7504 C.ar    1  UNL1        0.0503
     31 C          62.9248   82.8125   12.3696 C.ar    1  UNL1        0.0147
     32 C          63.0466   81.5583   11.5559 C.ar    1  UNL1        0.0013
     33 C          62.5847   80.2486   12.1229 C.ar    1  UNL1        0.0001
     34 C          62.0011   80.1931   13.5036 C.ar    1  UNL1        0.0013
     35 C          61.8792   81.4473   14.3173 C.ar    1  UNL1        0.0147
@<TRIPOS>BOND
     1    10    11    1
     2    11    12   ar
     3    12    13   ar
     4    13    14   ar
     5    14    15   ar
     6    15    16   ar
     7    16     1    1
     8     1     2   ar
     9     2     3   ar
    10     3     4   ar
    11     4     5   ar
    12     5     6   ar
    13     6     7   ar
    14     7     8   ar
    15     8     9   ar
    16     9    19    1
    17    19    20   ar
    18    20    21   ar
    19    21    22   ar
    20    22    25    1
    21    25    26    1
    22    26    27    2
    23    26    28   am
    24    28    30    1
    25    30    31   ar
    26    31    32   ar
    27    32    33   ar
    28    33    34   ar
    29    34    35   ar
    30    22    23   ar
    31    23    24   ar
    32    16    11   ar
    33     9     1   ar
    34    24    19   ar
    35     8     3   ar
    36    35    30   ar
    37    10    17    1
    38    10    18    1
    39    28    29    1
@<TRIPOS>MOLECULE
*****
 35 39 0 0 0
SMALL
GASTEIGER

@<TRIPOS>ATOM
      1 C          62.0062   86.0819   11.5189 C.ar    1  UNL1        0.1515
      2 N          61.8145   84.5943   11.5022 N.ar    1  UNL1       -0.2248
      3 C          62.6906   84.0020   12.5660 C.ar    1  UNL1        0.1173
      4 C          62.9154   82.5863   13.0078 C.ar    1  UNL1        0.0238
      5 C          63.8735   82.2922   14.1238 C.ar    1  UNL1        0.0223
      6 C          64.6067   83.4138   14.7980 C.ar    1  UNL1        0.1006
      7 N          64.3818   84.8294   14.3562 N.ar    1  UNL1       -0.2248
      8 C          63.4238   85.1236   13.2401 C.ar    1  UNL1        0.1666
      9 N          63.0008   86.4090   12.5930 N.ar    1  UNL1       -0.2754
     10 N          62.3006   85.8526    8.5422 N.pl3   1  UNL1       -0.3425
     11 C          61.4704   86.9544    9.1311 C.ar    1  UNL1        0.1282
     12 N          60.7874   87.9416    8.2316 N.ar    1  UNL1       -0.2295
     13 C          59.9572   89.0434    8.8205 C.ar    1  UNL1        0.1003
     14 C          59.8100   89.1580   10.3088 C.ar    1  UNL1        0.0209
     15 C          60.4930   88.1708   11.2083 C.ar    1  UNL1        0.0074
     16 C          61.3232   87.0691   10.6194 C.ar    1  UNL1        0.0657
     17 H          62.3973   85.7774    7.5653 H       1  UNL1        0.1437
     18 H          62.7489   85.2047    9.1325 H       1  UNL1        0.1437
     19 C          63.4871   87.7807   12.9563 C.ar    1  UNL1        0.0667
     20 C          63.2276   88.9365   12.0362 C.ar    1  UNL1        0.0173
     21 C          63.7139   90.3082   12.3995 C.ar    1  UNL1       -0.0023
     22 C          64.4597   90.5241   13.6828 C.ar    1  UNL1       -0.0130
     23 C          64.7192   89.3683   14.6030 C.ar    1  UNL1       -0.0023
     24 C          64.2329   87.9966   14.2397 C.ar    1  UNL1        0.0173
     25 C          64.9460   91.8958   14.0461 C.3     1  UNL1        0.1116
     26 C          65.7984   92.6686   13.0837 C.2     1  UNL1        0.2305
     27 O          67.2577   92.8681   13.3675 O.2     1  UNL1       -0.2744
     28 N          65.1913   93.2420   11.8376 N.am    1  UNL1       -0.2836
     29 H          64.2335   93.1110   11.6513 H       1  UNL1        0.1549
     30 C          66.0437   94.0148   10.8752 C.ar    1  UNL1        0.0503
     31 C          66.9481   93.2885    9.9240 C.ar    1  UNL1        0.0147
     32 C          67.8005   94.0613    8.9616 C.ar    1  UNL1        0.0013
     33 C          67.7485   95.5604    8.9505 C.ar    1  UNL1        0.0001
     34 C          66.8442   96.2867    9.9016 C.ar    1  UNL1        0.0013
     35 C          65.9918   95.5138   10.8640 C.ar    1  UNL1        0.0147
@<TRIPOS>BOND
     1    10    11    1
     2    11    12   ar
     3    12    13   ar
     4    13    14   ar
     5    14    15   ar
     6    15    16   ar
     7    16     1    1
     8     1     2   ar
     9     2     3   ar
    10     3     4   ar
    11     4     5   ar
    12     5     6   ar
    13     6     7   ar
    14     7     8   ar
    15     8     9   ar
    16     9    19    1
    17    19    20   ar
    18    20    21   ar
    19    21    22   ar
    20    22    25    1
    21    25    26    1
    22    26    27    2
    23    26    28   am
    24    28    30    1
    25    30    31   ar
    26    31    32   ar
    27    32    33   ar
    28    33    34   ar
    29    34    35   ar
    30    22    23   ar
    31    23    24   ar
    32    16    11   ar
    33     9     1   ar
    34    24    19   ar
    35     8     3   ar
    36    35    30   ar
    37    10    17    1
    38    10    18    1
    39    28    29    1
@<TRIPOS>MOLECULE
*****
 35 39 0 0 0
SMALL
GASTEIGER

@<TRIPOS>ATOM
      1 C          62.0660   86.0327   10.9858 C.ar    1  UNL1        0.1515
      2 N          61.1413   85.3596   10.0153 N.ar    1  UNL1       -0.2248
      3 C          60.5082   86.4212    9.1656 C.ar    1  UNL1        0.1173
      4 C          59.5150   86.3492    8.0439 C.ar    1  UNL1        0.0238
      5 C          59.0551   87.6066    7.3675 C.ar    1  UNL1        0.0223
      6 C          59.5886   88.9359    7.8128 C.ar    1  UNL1        0.1006
      7 N          60.5818   89.0079    8.9344 N.ar    1  UNL1       -0.2248
      8 C          61.0417   87.7506    9.6108 C.ar    1  UNL1        0.1666
      9 N          62.0044   87.5105   10.7358 N.ar    1  UNL1       -0.2754
     10 N          63.8524   83.7522   10.2060 N.pl3   1  UNL1       -0.3425
     11 C          63.7982   84.2081   11.6341 C.ar    1  UNL1        0.1282
     12 N          64.6371   83.5237   12.6722 N.ar    1  UNL1       -0.2295
     13 C          64.5829   83.9796   14.1002 C.ar    1  UNL1        0.1003
     14 C          63.6898   85.1198   14.4900 C.ar    1  UNL1        0.0209
     15 C          62.8508   85.8042   13.4519 C.ar    1  UNL1        0.0074
     16 C          62.9050   85.3483   12.0239 C.ar    1  UNL1        0.0657
     17 H          64.4386   83.0038    9.9501 H       1  UNL1        0.1437
     18 H          63.3018   84.2013    9.5246 H       1  UNL1        0.1437
     19 C          62.7710   88.5633   11.4801 C.ar    1  UNL1        0.0667
     20 C          63.4446   88.2247   12.7767 C.ar    1  UNL1        0.0173
     21 C          64.2112   89.2776   13.5210 C.ar    1  UNL1       -0.0023
     22 C          64.3041   90.6690   12.9686 C.ar    1  UNL1       -0.0130
     23 C          63.6304   91.0077   11.6719 C.ar    1  UNL1       -0.0023
     24 C          62.8638   89.9548   10.9276 C.ar    1  UNL1        0.0173
     25 C          65.0706   91.7219   13.7129 C.3     1  UNL1        0.1116
     26 C          65.8491   92.7578   12.9573 C.2     1  UNL1        0.2305
     27 O          67.1932   93.1980   13.4568 O.2     1  UNL1       -0.2744
     28 N          65.2833   93.3534   11.7022 N.am    1  UNL1       -0.2836
     29 H          64.4011   93.0645   11.3744 H       1  UNL1        0.1549
     30 C          66.0618   94.3893   10.9467 C.ar    1  UNL1        0.0503
     31 C          66.8610   93.9948    9.7401 C.ar    1  UNL1        0.0147
     32 C          67.6395   95.0307    8.9846 C.ar    1  UNL1        0.0013
     33 C          67.6187   96.4612    9.4355 C.ar    1  UNL1        0.0001
     34 C          66.8195   96.8557   10.6420 C.ar    1  UNL1        0.0013
     35 C          66.0410   95.8198   11.3976 C.ar    1  UNL1        0.0147
@<TRIPOS>BOND
     1    10    11    1
     2    11    12   ar
     3    12    13   ar
     4    13    14   ar
     5    14    15   ar
     6    15    16   ar
     7    16     1    1
     8     1     2   ar
     9     2     3   ar
    10     3     4   ar
    11     4     5   ar
    12     5     6   ar
    13     6     7   ar
    14     7     8   ar
    15     8     9   ar
    16     9    19    1
    17    19    20   ar
    18    20    21   ar
    19    21    22   ar
    20    22    25    1
    21    25    26    1
    22    26    27    2
    23    26    28   am
    24    28    30    1
    25    30    31   ar
    26    31    32   ar
    27    32    33   ar
    28    33    34   ar
    29    34    35   ar
    30    22    23   ar
    31    23    24   ar
    32    16    11   ar
    33     9     1   ar
    34    24    19   ar
    35     8     3   ar
    36    35    30   ar
    37    10    17    1
    38    10    18    1
    39    28    29    1
@<TRIPOS>MOLECULE
*****
 35 39 0 0 0
SMALL
GASTEIGER

@<TRIPOS>ATOM
      1 C          63.0278   90.4539   10.9210 C.ar    1  UNL1        0.1515
      2 N          63.3973   91.7656   10.2942 N.ar    1  UNL1       -0.2248
      3 C          64.4751   92.3911   11.1291 C.ar    1  UNL1        0.1173
      4 C          65.2247   93.6836   10.9963 C.ar    1  UNL1        0.0238
      5 C          66.2710   94.0509   12.0064 C.ar    1  UNL1        0.0223
      6 C          66.5677   93.1258   13.1492 C.ar    1  UNL1        0.1006
      7 N          65.8181   91.8333   13.2820 N.ar    1  UNL1       -0.2248
      8 C          64.7718   91.4660   12.2719 C.ar    1  UNL1        0.1666
      9 N          63.8774   90.2687   12.1433 N.ar    1  UNL1       -0.2754
     10 N          60.1245   90.9433   11.4964 N.pl3   1  UNL1       -0.3425
     11 C          60.5393   89.7403   10.7022 C.ar    1  UNL1        0.1282
     12 N          59.5024   88.7820   10.1956 N.ar    1  UNL1       -0.2295
     13 C          59.9172   87.5790    9.4014 C.ar    1  UNL1        0.1003
     14 C          61.3689   87.3343    9.1138 C.ar    1  UNL1        0.0209
     15 C          62.4057   88.2926    9.6203 C.ar    1  UNL1        0.0074
     16 C          61.9910   89.4956   10.4145 C.ar    1  UNL1        0.0657
     17 H          59.1717   91.1039   11.6852 H       1  UNL1        0.1437
     18 H          60.8050   91.5723   11.8289 H       1  UNL1        0.1437
     19 C          63.8392   89.0928   13.0737 C.ar    1  UNL1        0.0667
     20 C          63.5082   87.7286   12.5451 C.ar    1  UNL1        0.0173
     21 C          63.4701   86.5526   13.4755 C.ar    1  UNL1       -0.0023
     22 C          63.7628   86.7408   14.9346 C.ar    1  UNL1       -0.0130
     23 C          64.0938   88.1050   15.4632 C.ar    1  UNL1       -0.0023
     24 C          64.1320   89.2810   14.5328 C.ar    1  UNL1        0.0173
     25 C          63.7246   85.5649   15.8650 C.3     1  UNL1        0.1116
     26 C          63.6175   84.1745   15.3124 C.2     1  UNL1        0.2305
     27 O          64.4733   83.0770   15.8720 O.2     1  UNL1       -0.2744
     28 N          62.6545   83.8816   14.2002 N.am    1  UNL1       -0.2836
     29 H          62.0928   84.6020   13.8330 H       1  UNL1        0.1549
     30 C          62.5473   82.4913   13.6477 C.ar    1  UNL1        0.0503
     31 C          63.2173   82.1459   12.3507 C.ar    1  UNL1        0.0147
     32 C          63.1102   80.7555   11.7981 C.ar    1  UNL1        0.0013
     33 C          62.3331   79.7105   12.5425 C.ar    1  UNL1        0.0001
     34 C          61.6631   80.0558   13.8394 C.ar    1  UNL1        0.0013
     35 C          61.7703   81.4462   14.3920 C.ar    1  UNL1        0.0147
@<TRIPOS>BOND
     1    10    11    1
     2    11    12   ar
     3    12    13   ar
     4    13    14   ar
     5    14    15   ar
     6    15    16   ar
     7    16     1    1
     8     1     2   ar
     9     2     3   ar
    10     3     4   ar
    11     4     5   ar
    12     5     6   ar
    13     6     7   ar
    14     7     8   ar
    15     8     9   ar
    16     9    19    1
    17    19    20   ar
    18    20    21   ar
    19    21    22   ar
    20    22    25    1
    21    25    26    1
    22    26    27    2
    23    26    28   am
    24    28    30    1
    25    30    31   ar
    26    31    32   ar
    27    32    33   ar
    28    33    34   ar
    29    34    35   ar
    30    22    23   ar
    31    23    24   ar
    32    16    11   ar
    33     9     1   ar
    34    24    19   ar
    35     8     3   ar
    36    35    30   ar
    37    10    17    1
    38    10    18    1
    39    28    29    1
@<TRIPOS>MOLECULE
*****
 35 39 0 0 0
SMALL
GASTEIGER

@<TRIPOS>ATOM
      1 C          66.2903   92.6652   12.7124 C.ar    1  UNL1        0.1515
      2 N          66.8334   93.3564   13.9279 N.ar    1  UNL1       -0.2248
      3 C          66.0334   92.9055   15.1139 C.ar    1  UNL1        0.1173
      4 C          66.1156   93.2528   16.5708 C.ar    1  UNL1        0.0238
      5 C          65.1603   92.6301   17.5453 C.ar    1  UNL1        0.0223
      6 C          64.1227   91.6602   17.0628 C.ar    1  UNL1        0.1006
      7 N          64.0405   91.3130   15.6059 N.ar    1  UNL1       -0.2248
      8 C          64.9958   91.9356   14.6315 C.ar    1  UNL1        0.1666
      9 N          65.1546   91.7871   13.1473 N.ar    1  UNL1       -0.2754
     10 N          65.4026   95.0035   11.0557 N.pl3   1  UNL1       -0.3425
     11 C          66.3506   93.9933   10.4803 C.ar    1  UNL1        0.1282
     12 N          66.8547   94.1523    9.0765 N.ar    1  UNL1       -0.2295
     13 C          67.8026   93.1422    8.5011 C.ar    1  UNL1        0.1003
     14 C          68.2464   91.9732    9.3294 C.ar    1  UNL1        0.0209
     15 C          67.7423   91.8142   10.7332 C.ar    1  UNL1        0.0074
     16 C          66.7944   92.8242   11.3087 C.ar    1  UNL1        0.0657
     17 H          65.1113   95.7708   10.5120 H       1  UNL1        0.1437
     18 H          65.0717   94.8991   11.9771 H       1  UNL1        0.1437
     19 C          64.3236   90.9138   12.2547 C.ar    1  UNL1        0.0667
     20 C          63.9617   91.3795   10.8756 C.ar    1  UNL1        0.0173
     21 C          63.1307   90.5062    9.9830 C.ar    1  UNL1       -0.0023
     22 C          62.6615   89.1672   10.4695 C.ar    1  UNL1       -0.0130
     23 C          63.0233   88.7014   11.8487 C.ar    1  UNL1       -0.0023
     24 C          63.8543   89.5747   12.7413 C.ar    1  UNL1        0.0173
     25 C          61.8304   88.2939    9.5769 C.3     1  UNL1        0.1116
     26 C          61.9737   86.8022    9.6426 C.2     1  UNL1        0.2305
     27 O          61.3192   85.9395    8.6047 O.2     1  UNL1       -0.2744
     28 N          62.7715   86.1733   10.7463 N.am    1  UNL1       -0.2836
     29 H          63.2011   86.7395   11.4275 H       1  UNL1        0.1549
     30 C          62.9148   84.6816   10.8119 C.ar    1  UNL1        0.0503
     31 C          63.7068   83.9573    9.7639 C.ar    1  UNL1        0.0147
     32 C          63.8501   82.4656    9.8295 C.ar    1  UNL1        0.0013
     33 C          63.2013   81.6982   10.9432 C.ar    1  UNL1        0.0001
     34 C          62.4094   82.4224   11.9912 C.ar    1  UNL1        0.0013
     35 C          62.2661   83.9141   11.9256 C.ar    1  UNL1        0.0147
@<TRIPOS>BOND
     1    10    11    1
     2    11    12   ar
     3    12    13   ar
     4    13    14   ar
     5    14    15   ar
     6    15    16   ar
     7    16     1    1
     8     1     2   ar
     9     2     3   ar
    10     3     4   ar
    11     4     5   ar
    12     5     6   ar
    13     6     7   ar
    14     7     8   ar
    15     8     9   ar
    16     9    19    1
    17    19    20   ar
    18    20    21   ar
    19    21    22   ar
    20    22    25    1
    21    25    26    1
    22    26    27    2
    23    26    28   am
    24    28    30    1
    25    30    31   ar
    26    31    32   ar
    27    32    33   ar
    28    33    34   ar
    29    34    35   ar
    30    22    23   ar
    31    23    24   ar
    32    16    11   ar
    33     9     1   ar
    34    24    19   ar
    35     8     3   ar
    36    35    30   ar
    37    10    17    1
    38    10    18    1
    39    28    29    1
