@<TRIPOS>MOLECULE
*****
 35 38 0 0 0
SMALL
GASTEIGER

@<TRIPOS>ATOM
      1 C          63.1258   90.3123   12.3716 C.ar    1  UNL1        0.0005
      2 C          63.7191   90.0124   11.0270 C.ar    1  UNL1       -0.0003
      3 C          62.8855   89.3503    9.9702 C.ar    1  UNL1       -0.0034
      4 C          61.4586   88.9882   10.2580 C.ar    1  UNL1       -0.0103
      5 C          60.8653   89.2881   11.6027 C.ar    1  UNL1        0.0537
      6 CL         59.4385   88.9259   11.8906 Cl      1  UNL1       -0.0826
      7 C          61.6990   89.9502   12.6595 C.ar    1  UNL1        0.0111
      8 C          60.6250   88.3261    9.2013 C.3     1  UNL1        0.0430
      9 C          59.7261   89.1512    8.3289 C.3     1  UNL1        0.0733
     10 N          58.8925   88.4892    7.2721 N.3     1  UNL1       -0.2972
     11 C          58.9578   87.0020    7.0877 C.3     1  UNL1        0.0689
     12 C          59.8569   86.1769    7.9601 C.3     1  UNL1        0.0218
     13 C          60.6904   86.8389    9.0169 C.3     1  UNL1        0.0292
     14 H          59.1591   88.9084    6.3813 H       1  UNL1        0.1233
     15 C          61.5894   86.0138    9.8892 C.ar    1  UNL1       -0.0197
     16 C          61.4529   86.0794   11.3815 C.ar    1  UNL1       -0.0018
     17 C          62.3519   85.2542   12.2539 C.ar    1  UNL1        0.0316
     18 C          63.3873   84.3635   11.6339 C.ar    1  UNL1        0.1674
     19 F          64.2863   83.5383   12.5062 F       1  UNL1       -0.2018
     20 C          63.5238   84.2979   10.1416 C.ar    1  UNL1        0.1671
     21 F          64.5593   83.4071    9.5216 F       1  UNL1       -0.2018
     22 C          62.6249   85.1230    9.2692 C.ar    1  UNL1        0.0277
     23 C          65.0117   91.9700   13.0392 C.ar    1  UNL1       -0.0205
     24 C          65.8453   92.6320   14.0959 C.ar    1  UNL1       -0.0042
     25 C          65.6266   92.2985   15.5419 C.ar    1  UNL1       -0.0003
     26 C          64.5744   91.3029   15.9312 C.ar    1  UNL1       -0.0000
     27 C          63.7408   90.6408   14.8744 C.ar    1  UNL1       -0.0003
     28 C          63.9595   90.9744   13.4284 C.ar    1  UNL1       -0.0039
     29 C          65.2303   92.3036   11.5932 C.3     1  UNL1        0.0476
     30 C          66.3416   93.2299   11.1969 C.3     1  UNL1        0.0941
     31 C          67.1930   95.4588    8.0256 C.3     1  UNL1        0.0946
     32 C          67.3632   94.5433    9.2015 C.2     1  UNL1        0.2230
     33 O          68.7251   94.0256    9.5580 O.2     1  UNL1       -0.2751
     34 N          66.1714   94.1454   10.0209 N.am    1  UNL1       -0.3040
     35 H          65.2775   94.4852    9.7869 H       1  UNL1        0.1494
@<TRIPOS>BOND
     1    31    32    1
     2    32    33    2
     3    32    34   am
     4    34    30    1
     5    30    29    1
     6    29    23    1
     7    23    24   ar
     8    24    25   ar
     9    25    26   ar
    10    26    27   ar
    11    27    28   ar
    12    28     1    1
    13     1     2   ar
    14     2     3   ar
    15     3     4   ar
    16     8     4    1
    17     8     9    1
    18     9    10    1
    19    10    11    1
    20    11    12    1
    21    12    13    1
    22    13    15    1
    23    15    16   ar
    24    16    17   ar
    25    17    18   ar
    26    18    19    1
    27    18    20   ar
    28    20    21    1
    29    20    22   ar
    30     4     5   ar
    31     5     6    1
    32     5     7   ar
    33    28    23   ar
    34     7     1   ar
    35    13     8    1
    36    22    15   ar
    37    34    35    1
    38    10    14    1
@<TRIPOS>MOLECULE
*****
 35 38 0 0 0
SMALL
GASTEIGER

@<TRIPOS>ATOM
      1 C          63.2968   90.4870   12.1465 C.ar    1  UNL1        0.0005
      2 C          63.8076   90.1578   10.7751 C.ar    1  UNL1       -0.0003
      3 C          62.9162   89.4614    9.7900 C.ar    1  UNL1       -0.0034
      4 C          61.5140   89.0942   10.1762 C.ar    1  UNL1       -0.0103
      5 C          61.0033   89.4235   11.5476 C.ar    1  UNL1        0.0537
      6 CL         59.6012   89.0564   11.9339 Cl      1  UNL1       -0.0826
      7 C          61.8947   90.1199   12.5328 C.ar    1  UNL1        0.0111
      8 C          60.6226   88.3978    9.1911 C.3     1  UNL1        0.0430
      9 C          59.6975   89.1966    8.3217 C.3     1  UNL1        0.0733
     10 N          58.8060   88.5003    7.3365 N.3     1  UNL1       -0.2972
     11 C          58.8399   87.0051    7.2208 C.3     1  UNL1        0.0689
     12 C          59.7651   86.2063    8.0904 C.3     1  UNL1        0.0218
     13 C          60.6565   86.9027    9.0755 C.3     1  UNL1        0.0292
     14 H          59.0379   88.8722    6.4155 H       1  UNL1        0.1233
     15 C          61.5816   86.1039    9.9449 C.ar    1  UNL1       -0.0197
     16 C          61.4819   86.2054   11.4381 C.ar    1  UNL1       -0.0018
     17 C          62.4072   85.4065   12.3076 C.ar    1  UNL1        0.0316
     18 C          63.4320   84.5063   11.6838 C.ar    1  UNL1        0.1674
     19 F          64.3573   83.7075   12.5532 F       1  UNL1       -0.2018
     20 C          63.5318   84.4049   10.1905 C.ar    1  UNL1        0.1671
     21 F          64.5567   83.5046    9.5667 F       1  UNL1       -0.2018
     22 C          62.6066   85.2036    9.3211 C.ar    1  UNL1        0.0277
     23 C          64.0893   90.8588   14.5927 C.ar    1  UNL1       -0.0205
     24 C          64.9807   91.5552   15.5777 C.ar    1  UNL1       -0.0042
     25 C          65.9711   92.5762   15.1017 C.ar    1  UNL1       -0.0003
     26 C          66.0701   92.9009   13.6406 C.ar    1  UNL1       -0.0000
     27 C          65.1787   92.2045   12.6556 C.ar    1  UNL1       -0.0003
     28 C          64.1883   91.1834   13.1316 C.ar    1  UNL1       -0.0039
     29 C          63.0989   89.8378   15.0687 C.3     1  UNL1        0.0476
     30 C          63.5412   88.7320   15.9806 C.3     1  UNL1        0.0941
     31 C          63.9033   84.7963   15.6208 C.3     1  UNL1        0.0946
     32 C          63.5583   86.1421   16.1864 C.2     1  UNL1        0.2230
     33 O          62.8856   86.2439   17.5231 O.2     1  UNL1       -0.2751
     34 N          63.8862   87.3862   15.4150 N.am    1  UNL1       -0.3040
     35 H          64.3277   87.3194   14.5376 H       1  UNL1        0.1494
@<TRIPOS>BOND
     1    31    32    1
     2    32    33    2
     3    32    34   am
     4    34    30    1
     5    30    29    1
     6    29    23    1
     7    23    24   ar
     8    24    25   ar
     9    25    26   ar
    10    26    27   ar
    11    27    28   ar
    12    28     1    1
    13     1     2   ar
    14     2     3   ar
    15     3     4   ar
    16     8     4    1
    17     8     9    1
    18     9    10    1
    19    10    11    1
    20    11    12    1
    21    12    13    1
    22    13    15    1
    23    15    16   ar
    24    16    17   ar
    25    17    18   ar
    26    18    19    1
    27    18    20   ar
    28    20    21    1
    29    20    22   ar
    30     4     5   ar
    31     5     6    1
    32     5     7   ar
    33    28    23   ar
    34     7     1   ar
    35    13     8    1
    36    22    15   ar
    37    34    35    1
    38    10    14    1
@<TRIPOS>MOLECULE
*****
 35 38 0 0 0
SMALL
GASTEIGER

@<TRIPOS>ATOM
      1 C          62.7990   89.7928   11.2854 C.ar    1  UNL1        0.0005
      2 C          63.2250   91.2123   11.0538 C.ar    1  UNL1       -0.0003
      3 C          64.1033   91.9045   12.0535 C.ar    1  UNL1       -0.0034
      4 C          64.5556   91.1771   13.2850 C.ar    1  UNL1       -0.0103
      5 C          64.1297   89.7577   13.5166 C.ar    1  UNL1        0.0537
      6 CL         64.5820   89.0303   14.7480 Cl      1  UNL1       -0.0826
      7 C          63.2513   89.0655   12.5168 C.ar    1  UNL1        0.0111
      8 C          65.4339   91.8693   14.2847 C.3     1  UNL1        0.0430
      9 C          65.1250   91.7712   15.7492 C.3     1  UNL1        0.0733
     10 N          66.0033   92.4634   16.7491 N.3     1  UNL1       -0.2972
     11 C          67.1905   93.2536   16.2843 C.3     1  UNL1        0.0689
     12 C          67.4994   93.3517   14.8197 C.3     1  UNL1        0.0218
     13 C          66.6211   92.6595   13.8199 C.3     1  UNL1        0.0292
     14 H          66.3571   91.7431   17.3786 H       1  UNL1        0.1233
     15 C          66.9301   92.7576   12.3554 C.ar    1  UNL1       -0.0197
     16 C          67.7859   91.7158   11.6980 C.ar    1  UNL1       -0.0018
     17 C          68.0948   91.8139   10.2334 C.ar    1  UNL1        0.0316
     18 C          67.5479   92.9538    9.4263 C.ar    1  UNL1        0.1674
     19 F          67.8569   93.0519    7.9616 F       1  UNL1       -0.2018
     20 C          66.6921   93.9956   10.0837 C.ar    1  UNL1        0.1671
     21 F          66.1452   95.1356    9.2765 F       1  UNL1       -0.2018
     22 C          66.3832   93.8975   11.5482 C.ar    1  UNL1        0.0277
     23 C          61.8985   87.6025   10.2171 C.ar    1  UNL1       -0.0205
     24 C          61.0202   86.9104    9.2173 C.ar    1  UNL1       -0.0042
     25 C          60.1641   87.7166    8.2861 C.ar    1  UNL1       -0.0003
     26 C          60.1863   89.2148    8.3546 C.ar    1  UNL1       -0.0000
     27 C          61.0646   89.9069    9.3544 C.ar    1  UNL1       -0.0003
     28 C          61.9207   89.1007   10.2856 C.ar    1  UNL1       -0.0039
     29 C          62.7545   86.7963   11.1484 C.3     1  UNL1        0.0476
     30 C          62.2238   85.5266   11.7451 C.3     1  UNL1        0.0941
     31 C          63.9042   83.9309   14.9669 C.3     1  UNL1        0.0946
     32 C          63.6225   84.2596   13.5308 C.2     1  UNL1        0.2230
     33 O          64.4578   83.6502   12.4441 O.2     1  UNL1       -0.2751
     34 N          62.5055   85.1978   13.1813 N.am    1  UNL1       -0.3040
     35 H          61.9572   85.5978   13.8945 H       1  UNL1        0.1494
@<TRIPOS>BOND
     1    31    32    1
     2    32    33    2
     3    32    34   am
     4    34    30    1
     5    30    29    1
     6    29    23    1
     7    23    24   ar
     8    24    25   ar
     9    25    26   ar
    10    26    27   ar
    11    27    28   ar
    12    28     1    1
    13     1     2   ar
    14     2     3   ar
    15     3     4   ar
    16     8     4    1
    17     8     9    1
    18     9    10    1
    19    10    11    1
    20    11    12    1
    21    12    13    1
    22    13    15    1
    23    15    16   ar
    24    16    17   ar
    25    17    18   ar
    26    18    19    1
    27    18    20   ar
    28    20    21    1
    29    20    22   ar
    30     4     5   ar
    31     5     6    1
    32     5     7   ar
    33    28    23   ar
    34     7     1   ar
    35    13     8    1
    36    22    15   ar
    37    34    35    1
    38    10    14    1
@<TRIPOS>MOLECULE
*****
 35 38 0 0 0
SMALL
GASTEIGER

@<TRIPOS>ATOM
      1 C          62.1286   89.4096   10.5588 C.ar    1  UNL1        0.0005
      2 C          62.0957   89.2391   12.0487 C.ar    1  UNL1       -0.0003
      3 C          63.0177   90.0436   12.9162 C.ar    1  UNL1       -0.0034
      4 C          63.9727   91.0187   12.2937 C.ar    1  UNL1       -0.0103
      5 C          64.0055   91.1892   10.8038 C.ar    1  UNL1        0.0537
      6 CL         64.9604   92.1643   10.1814 Cl      1  UNL1       -0.0826
      7 C          63.0835   90.3846    9.9363 C.ar    1  UNL1        0.0111
      8 C          64.8947   91.8233   13.1612 C.3     1  UNL1        0.0430
      9 C          65.5219   93.0772   12.6283 C.3     1  UNL1        0.0733
     10 N          66.4440   93.8819   13.4958 N.3     1  UNL1       -0.2972
     11 C          66.7387   93.4325   14.8962 C.3     1  UNL1        0.0689
     12 C          66.1114   92.1784   15.4291 C.3     1  UNL1        0.0218
     13 C          65.1894   91.3739   14.5617 C.3     1  UNL1        0.0292
     14 H          66.0420   94.8168   13.5650 H       1  UNL1        0.1233
     15 C          64.5621   90.1199   15.0946 C.ar    1  UNL1       -0.0197
     16 C          63.5502   90.1983   16.1990 C.ar    1  UNL1       -0.0018
     17 C          62.9229   88.9443   16.7320 C.ar    1  UNL1        0.0316
     18 C          63.3076   87.6119   16.1604 C.ar    1  UNL1        0.1674
     19 F          62.6803   86.3578   16.6934 F       1  UNL1       -0.2018
     20 C          64.3195   87.5334   15.0560 C.ar    1  UNL1        0.1671
     21 F          64.7042   86.2009   14.4845 F       1  UNL1       -0.2018
     22 C          64.9468   88.7874   14.5231 C.ar    1  UNL1        0.0277
     23 C          61.3360   87.1114    9.6422 C.ar    1  UNL1       -0.0205
     24 C          60.4139   86.3068    8.7747 C.ar    1  UNL1       -0.0042
     25 C          59.3625   86.9959    7.9563 C.ar    1  UNL1       -0.0003
     26 C          59.2331   88.4894    8.0054 C.ar    1  UNL1       -0.0000
     27 C          60.1551   89.2940    8.8729 C.ar    1  UNL1       -0.0003
     28 C          61.2066   88.6049    9.6913 C.ar    1  UNL1       -0.0039
     29 C          62.3874   86.4223   10.4605 C.3     1  UNL1        0.0476
     30 C          61.9877   85.5383   11.6045 C.3     1  UNL1        0.0941
     31 C          63.5999   82.4906   13.5698 C.3     1  UNL1        0.0946
     32 C          62.8283   83.7453   13.2864 C.2     1  UNL1        0.2230
     33 O          62.1258   84.4618   14.4013 O.2     1  UNL1       -0.2751
     34 N          62.7593   84.2836   11.8879 N.am    1  UNL1       -0.3040
     35 H          63.2204   83.8134   11.1561 H       1  UNL1        0.1494
@<TRIPOS>BOND
     1    31    32    1
     2    32    33    2
     3    32    34   am
     4    34    30    1
     5    30    29    1
     6    29    23    1
     7    23    24   ar
     8    24    25   ar
     9    25    26   ar
    10    26    27   ar
    11    27    28   ar
    12    28     1    1
    13     1     2   ar
    14     2     3   ar
    15     3     4   ar
    16     8     4    1
    17     8     9    1
    18     9    10    1
    19    10    11    1
    20    11    12    1
    21    12    13    1
    22    13    15    1
    23    15    16   ar
    24    16    17   ar
    25    17    18   ar
    26    18    19    1
    27    18    20   ar
    28    20    21    1
    29    20    22   ar
    30     4     5   ar
    31     5     6    1
    32     5     7   ar
    33    28    23   ar
    34     7     1   ar
    35    13     8    1
    36    22    15   ar
    37    34    35    1
    38    10    14    1
@<TRIPOS>MOLECULE
*****
 35 38 0 0 0
SMALL
GASTEIGER

@<TRIPOS>ATOM
      1 C          62.7214   89.8503   11.2467 C.ar    1  UNL1        0.0005
      2 C          63.1467   91.2719   11.0271 C.ar    1  UNL1       -0.0003
      3 C          64.0442   91.9483   12.0205 C.ar    1  UNL1       -0.0034
      4 C          64.5165   91.2031   13.2337 C.ar    1  UNL1       -0.0103
      5 C          64.0912   89.7815   13.4533 C.ar    1  UNL1        0.0537
      6 CL         64.5634   89.0363   14.6664 Cl      1  UNL1       -0.0826
      7 C          63.1937   89.1051   12.4598 C.ar    1  UNL1        0.0111
      8 C          65.4140   91.8795   14.2271 C.3     1  UNL1        0.0430
      9 C          65.2404   91.6185   15.6939 C.3     1  UNL1        0.0733
     10 N          66.1379   92.2949   16.6875 N.3     1  UNL1       -0.2972
     11 C          67.2090   93.2323   16.2141 C.3     1  UNL1        0.0689
     12 C          67.3826   93.4932   14.7471 C.3     1  UNL1        0.0218
     13 C          66.4851   92.8169   13.7537 C.3     1  UNL1        0.0292
     14 H          66.6046   91.5561   17.2134 H       1  UNL1        0.1233
     15 C          66.6586   93.0778   12.2868 C.ar    1  UNL1       -0.0197
     16 C          66.0913   94.3241   11.6744 C.ar    1  UNL1       -0.0018
     17 C          66.2649   94.5850   10.2075 C.ar    1  UNL1        0.0316
     18 C          67.0059   93.5998    9.3530 C.ar    1  UNL1        0.1674
     19 F          67.1795   93.8607    7.8861 F       1  UNL1       -0.2018
     20 C          67.5733   92.3535    9.9654 C.ar    1  UNL1        0.1671
     21 F          68.3143   91.3683    9.1108 F       1  UNL1       -0.2018
     22 C          67.3997   92.0926   11.4323 C.ar    1  UNL1        0.0277
     23 C          61.7374   87.6769   10.2182 C.ar    1  UNL1       -0.0205
     24 C          60.8399   87.0006    9.2247 C.ar    1  UNL1       -0.0042
     25 C          60.0289   87.8214    8.2662 C.ar    1  UNL1       -0.0003
     26 C          60.1154   89.3184    8.3013 C.ar    1  UNL1       -0.0000
     27 C          61.0129   89.9947    9.2947 C.ar    1  UNL1       -0.0003
     28 C          61.8239   89.1740   10.2532 C.ar    1  UNL1       -0.0039
     29 C          62.5484   86.8561   11.1766 C.3     1  UNL1        0.0476
     30 C          62.0512   85.5123   11.6203 C.3     1  UNL1        0.0941
     31 C          64.5376   82.6527   10.4411 C.3     1  UNL1        0.0946
     32 C          63.5995   83.8223   10.3968 C.2     1  UNL1        0.2230
     33 O          63.2715   84.4714    9.0850 O.2     1  UNL1       -0.2751
     34 N          62.9893   84.3427   11.6645 N.am    1  UNL1       -0.3040
     35 H          63.2046   83.9166   12.5255 H       1  UNL1        0.1494
@<TRIPOS>BOND
     1    31    32    1
     2    32    33    2
     3    32    34   am
     4    34    30    1
     5    30    29    1
     6    29    23    1
     7    23    24   ar
     8    24    25   ar
     9    25    26   ar
    10    26    27   ar
    11    27    28   ar
    12    28     1    1
    13     1     2   ar
    14     2     3   ar
    15     3     4   ar
    16     8     4    1
    17     8     9    1
    18     9    10    1
    19    10    11    1
    20    11    12    1
    21    12    13    1
    22    13    15    1
    23    15    16   ar
    24    16    17   ar
    25    17    18   ar
    26    18    19    1
    27    18    20   ar
    28    20    21    1
    29    20    22   ar
    30     4     5   ar
    31     5     6    1
    32     5     7   ar
    33    28    23   ar
    34     7     1   ar
    35    13     8    1
    36    22    15   ar
    37    34    35    1
    38    10    14    1
@<TRIPOS>MOLECULE
*****
 35 38 0 0 0
SMALL
GASTEIGER

@<TRIPOS>ATOM
      1 C          62.0188   89.3349   10.4786 C.ar    1  UNL1        0.0005
      2 C          61.9005   89.1537   11.9629 C.ar    1  UNL1       -0.0003
      3 C          62.7947   89.9267   12.8865 C.ar    1  UNL1       -0.0034
      4 C          63.8071   90.8809   12.3257 C.ar    1  UNL1       -0.0103
      5 C          63.9254   91.0621   10.8414 C.ar    1  UNL1        0.0537
      6 CL         64.9378   92.0163   10.2806 Cl      1  UNL1       -0.0826
      7 C          63.0312   90.2891    9.9178 C.ar    1  UNL1        0.0111
      8 C          64.7013   91.6539   13.2492 C.3     1  UNL1        0.0430
      9 C          65.2192   93.0004   12.8388 C.3     1  UNL1        0.0733
     10 N          66.1134   93.7735   13.7624 N.3     1  UNL1       -0.2972
     11 C          66.4897   93.1999   15.0963 C.3     1  UNL1        0.0689
     12 C          65.9717   91.8532   15.5067 C.3     1  UNL1        0.0218
     13 C          65.0776   91.0803   14.5832 C.3     1  UNL1        0.0292
     14 H          65.6496   94.6634   13.9448 H       1  UNL1        0.1233
     15 C          64.5597   89.7337   14.9936 C.ar    1  UNL1       -0.0197
     16 C          64.9401   88.5129   14.2094 C.ar    1  UNL1       -0.0018
     17 C          64.4221   87.1663   14.6198 C.ar    1  UNL1        0.0316
     18 C          63.5238   87.0405   15.8145 C.ar    1  UNL1        0.1674
     19 F          63.0059   85.6939   16.2249 F       1  UNL1       -0.2018
     20 C          63.1434   88.2613   16.5987 C.ar    1  UNL1        0.1671
     21 F          62.2451   88.1354   17.7934 F       1  UNL1       -0.2018
     22 C          63.6613   89.6078   16.1883 C.ar    1  UNL1        0.0277
     23 C          61.2752   87.0743    9.4362 C.ar    1  UNL1       -0.0205
     24 C          60.3810   86.3013    8.5127 C.ar    1  UNL1       -0.0042
     25 C          59.3361   87.0160    7.7081 C.ar    1  UNL1       -0.0003
     26 C          59.1854   88.5037    7.8269 C.ar    1  UNL1       -0.0000
     27 C          60.0796   89.2766    8.7504 C.ar    1  UNL1       -0.0003
     28 C          61.1245   88.5619    9.5551 C.ar    1  UNL1       -0.0039
     29 C          62.3201   86.3596   10.2408 C.3     1  UNL1        0.0476
     30 C          61.9394   85.1800   11.0856 C.3     1  UNL1        0.0941
     31 C          64.4884   83.6705   13.7264 C.3     1  UNL1        0.0946
     32 C          63.7747   83.9279   12.4324 C.2     1  UNL1        0.2230
     33 O          64.1825   83.1907   11.1914 O.2     1  UNL1       -0.2751
     34 N          62.6531   84.9226   12.3795 N.am    1  UNL1       -0.3040
     35 H          62.3855   85.4064   13.1941 H       1  UNL1        0.1494
@<TRIPOS>BOND
     1    31    32    1
     2    32    33    2
     3    32    34   am
     4    34    30    1
     5    30    29    1
     6    29    23    1
     7    23    24   ar
     8    24    25   ar
     9    25    26   ar
    10    26    27   ar
    11    27    28   ar
    12    28     1    1
    13     1     2   ar
    14     2     3   ar
    15     3     4   ar
    16     8     4    1
    17     8     9    1
    18     9    10    1
    19    10    11    1
    20    11    12    1
    21    12    13    1
    22    13    15    1
    23    15    16   ar
    24    16    17   ar
    25    17    18   ar
    26    18    19    1
    27    18    20   ar
    28    20    21    1
    29    20    22   ar
    30     4     5   ar
    31     5     6    1
    32     5     7   ar
    33    28    23   ar
    34     7     1   ar
    35    13     8    1
    36    22    15   ar
    37    34    35    1
    38    10    14    1
@<TRIPOS>MOLECULE
*****
 35 38 0 0 0
SMALL
GASTEIGER

@<TRIPOS>ATOM
      1 C          62.5556   84.7328   11.6262 C.ar    1  UNL1        0.0005
      2 C          61.5299   85.7071   12.1248 C.ar    1  UNL1       -0.0003
      3 C          60.8535   86.6408   11.1653 C.ar    1  UNL1       -0.0034
      4 C          61.2029   86.6003    9.7071 C.ar    1  UNL1       -0.0103
      5 C          62.2286   85.6260    9.2084 C.ar    1  UNL1        0.0537
      6 CL         62.5780   85.5854    7.7503 Cl      1  UNL1       -0.0826
      7 C          62.9050   84.6922   10.1680 C.ar    1  UNL1        0.0111
      8 C          60.5265   87.5340    8.7476 C.3     1  UNL1        0.0430
      9 C          59.7185   86.9841    7.6098 C.3     1  UNL1        0.0733
     10 N          59.0421   87.9179    6.6502 N.3     1  UNL1       -0.2972
     11 C          59.1737   89.4014    6.8286 C.3     1  UNL1        0.0689
     12 C          59.9818   89.9512    7.9665 C.3     1  UNL1        0.0218
     13 C          60.6582   89.0175    8.9260 C.3     1  UNL1        0.0292
     14 H          58.0453   87.7044    6.6849 H       1  UNL1        0.1233
     15 C          61.4662   89.5673   10.0638 C.ar    1  UNL1       -0.0197
     16 C          60.9981   89.3784   11.4763 C.ar    1  UNL1       -0.0018
     17 C          61.8062   89.9282   12.6142 C.ar    1  UNL1        0.0316
     18 C          63.0824   90.6670   12.3395 C.ar    1  UNL1        0.1674
     19 F          63.8905   91.2169   13.4774 F       1  UNL1       -0.2018
     20 C          63.5506   90.8559   10.9270 C.ar    1  UNL1        0.1671
     21 F          64.8268   91.5947   10.6524 F       1  UNL1       -0.2018
     22 C          62.7425   90.3061    9.7892 C.ar    1  UNL1        0.0277
     23 C          64.0894   84.3475   13.6876 C.ar    1  UNL1       -0.0205
     24 C          64.7657   83.4138   14.6471 C.ar    1  UNL1       -0.0042
     25 C          64.5846   81.9316   14.5048 C.ar    1  UNL1       -0.0003
     26 C          63.7273   81.3831   13.4030 C.ar    1  UNL1       -0.0000
     27 C          63.0510   82.3168   12.4434 C.ar    1  UNL1       -0.0003
     28 C          63.2320   83.7991   12.5858 C.ar    1  UNL1       -0.0039
     29 C          64.2704   85.8298   13.8299 C.3     1  UNL1        0.0476
     30 C          64.0616   86.4863   15.1622 C.3     1  UNL1        0.0941
     31 C          63.2063   90.0940   16.5778 C.3     1  UNL1        0.0946
     32 C          63.3532   88.6037   16.4908 C.2     1  UNL1        0.2230
     33 O          62.9387   87.7406   17.6454 O.2     1  UNL1       -0.2751
     34 N          63.9147   87.9766   15.2492 N.am    1  UNL1       -0.3040
     35 H          64.1867   88.5431   14.4914 H       1  UNL1        0.1494
@<TRIPOS>BOND
     1    31    32    1
     2    32    33    2
     3    32    34   am
     4    34    30    1
     5    30    29    1
     6    29    23    1
     7    23    24   ar
     8    24    25   ar
     9    25    26   ar
    10    26    27   ar
    11    27    28   ar
    12    28     1    1
    13     1     2   ar
    14     2     3   ar
    15     3     4   ar
    16     8     4    1
    17     8     9    1
    18     9    10    1
    19    10    11    1
    20    11    12    1
    21    12    13    1
    22    13    15    1
    23    15    16   ar
    24    16    17   ar
    25    17    18   ar
    26    18    19    1
    27    18    20   ar
    28    20    21    1
    29    20    22   ar
    30     4     5   ar
    31     5     6    1
    32     5     7   ar
    33    28    23   ar
    34     7     1   ar
    35    13     8    1
    36    22    15   ar
    37    34    35    1
    38    10    14    1
@<TRIPOS>MOLECULE
*****
 35 38 0 0 0
SMALL
GASTEIGER

@<TRIPOS>ATOM
      1 C          62.9426   89.4802   11.3054 C.ar    1  UNL1        0.0005
      2 C          63.3395   90.8986   11.0213 C.ar    1  UNL1       -0.0003
      3 C          64.1455   91.6674   12.0258 C.ar    1  UNL1       -0.0034
      4 C          64.5548   91.0179   13.3146 C.ar    1  UNL1       -0.0103
      5 C          64.1579   89.5995   13.5987 C.ar    1  UNL1        0.0537
      6 CL         64.5671   88.9500   14.8873 Cl      1  UNL1       -0.0826
      7 C          63.3518   88.8307   12.5940 C.ar    1  UNL1        0.0111
      8 C          65.3608   91.7867   14.3191 C.3     1  UNL1        0.0430
      9 C          64.9666   91.7724   15.7662 C.3     1  UNL1        0.0733
     10 N          65.7726   92.5413   16.7709 N.3     1  UNL1       -0.2972
     11 C          66.9729   93.3244   16.3282 C.3     1  UNL1        0.0689
     12 C          67.3672   93.3387   14.8810 C.3     1  UNL1        0.0218
     13 C          66.5611   92.5699   13.8764 C.3     1  UNL1        0.0292
     14 H          66.0996   91.8678   17.4636 H       1  UNL1        0.1233
     15 C          66.9554   92.5842   12.4293 C.ar    1  UNL1       -0.0197
     16 C          67.9390   91.5779   11.9099 C.ar    1  UNL1       -0.0018
     17 C          68.3333   91.5923   10.4627 C.ar    1  UNL1        0.0316
     18 C          67.7439   92.6129    9.5349 C.ar    1  UNL1        0.1674
     19 F          68.1381   92.6273    8.0876 F       1  UNL1       -0.2018
     20 C          66.7602   93.6192   10.0542 C.ar    1  UNL1        0.1671
     21 F          66.1707   94.6399    9.1264 F       1  UNL1       -0.2018
     22 C          66.3659   93.6049   11.5014 C.ar    1  UNL1        0.0277
     23 C          60.7331   89.1347    9.9831 C.ar    1  UNL1       -0.0205
     24 C          59.9270   88.3658    8.9785 C.ar    1  UNL1       -0.0042
     25 C          60.5245   87.1737    8.2917 C.ar    1  UNL1       -0.0003
     26 C          61.9280   86.7503    8.6094 C.ar    1  UNL1       -0.0000
     27 C          62.7340   87.5192    9.6139 C.ar    1  UNL1       -0.0003
     28 C          62.1365   88.7113   10.3008 C.ar    1  UNL1       -0.0039
     29 C          60.1356   90.3268   10.6700 C.3     1  UNL1        0.0476
     30 C          59.4234   90.1592   11.9794 C.3     1  UNL1        0.0941
     31 C          56.3617   88.0041   13.2954 C.3     1  UNL1        0.0946
     32 C          57.6921   88.6954   13.2483 C.2     1  UNL1        0.2230
     33 O          58.6215   88.6143   14.4229 O.2     1  UNL1       -0.2751
     34 N          58.0931   89.4679   12.0265 N.am    1  UNL1       -0.3040
     35 H          57.4831   89.5211   11.2556 H       1  UNL1        0.1494
@<TRIPOS>BOND
     1    31    32    1
     2    32    33    2
     3    32    34   am
     4    34    30    1
     5    30    29    1
     6    29    23    1
     7    23    24   ar
     8    24    25   ar
     9    25    26   ar
    10    26    27   ar
    11    27    28   ar
    12    28     1    1
    13     1     2   ar
    14     2     3   ar
    15     3     4   ar
    16     8     4    1
    17     8     9    1
    18     9    10    1
    19    10    11    1
    20    11    12    1
    21    12    13    1
    22    13    15    1
    23    15    16   ar
    24    16    17   ar
    25    17    18   ar
    26    18    19    1
    27    18    20   ar
    28    20    21    1
    29    20    22   ar
    30     4     5   ar
    31     5     6    1
    32     5     7   ar
    33    28    23   ar
    34     7     1   ar
    35    13     8    1
    36    22    15   ar
    37    34    35    1
    38    10    14    1
@<TRIPOS>MOLECULE
*****
 35 38 0 0 0
SMALL
GASTEIGER

@<TRIPOS>ATOM
      1 C          62.3787   88.5845   11.2688 C.ar    1  UNL1        0.0005
      2 C          62.1224   90.0587   11.3732 C.ar    1  UNL1       -0.0003
      3 C          62.6891   90.8390   12.5221 C.ar    1  UNL1       -0.0034
      4 C          63.5121   90.1450   13.5667 C.ar    1  UNL1       -0.0103
      5 C          63.7683   88.6707   13.4623 C.ar    1  UNL1        0.0537
      6 CL         64.5913   87.9767   14.5069 Cl      1  UNL1       -0.0826
      7 C          63.2016   87.8905   12.3133 C.ar    1  UNL1        0.0111
      8 C          64.0788   90.9252   14.7156 C.3     1  UNL1        0.0430
      9 C          63.5062   90.7565   16.0917 C.3     1  UNL1        0.0733
     10 N          64.0729   91.5368   17.2407 N.3     1  UNL1       -0.2972
     11 C          65.2122   92.4857   17.0135 C.3     1  UNL1        0.0689
     12 C          65.7848   92.6544   15.6373 C.3     1  UNL1        0.0218
     13 C          65.2181   91.8741   14.4884 C.3     1  UNL1        0.0292
     14 H          64.3898   90.8561   17.9310 H       1  UNL1        0.1233
     15 C          65.7906   92.0428   13.1124 C.ar    1  UNL1       -0.0197
     16 C          64.9448   92.6133   12.0128 C.ar    1  UNL1       -0.0018
     17 C          65.5174   92.7819   10.6366 C.ar    1  UNL1        0.0316
     18 C          66.9359   92.3802   10.3601 C.ar    1  UNL1        0.1674
     19 F          67.5085   92.5488    8.9840 F       1  UNL1       -0.2018
     20 C          67.7818   91.8097   11.4597 C.ar    1  UNL1        0.1671
     21 F          69.2003   91.4079   11.1831 F       1  UNL1       -0.2018
     22 C          67.2092   91.6410   12.8358 C.ar    1  UNL1        0.0277
     23 C          62.1633   86.3558    9.9509 C.ar    1  UNL1       -0.0205
     24 C          61.5966   85.5757    8.8020 C.ar    1  UNL1       -0.0042
     25 C          60.6784   86.2439    7.8219 C.ar    1  UNL1       -0.0003
     26 C          60.3271   87.6923    7.9908 C.ar    1  UNL1       -0.0000
     27 C          60.8938   88.4725    9.1398 C.ar    1  UNL1       -0.0003
     28 C          61.8119   87.8042   10.1198 C.ar    1  UNL1       -0.0039
     29 C          63.0814   85.6876   10.9310 C.3     1  UNL1        0.0476
     30 C          62.7990   84.2873   11.3887 C.3     1  UNL1        0.0941
     31 C          62.8320   83.5799   15.2936 C.3     1  UNL1        0.0946
     32 C          63.3112   83.8293   13.8943 C.2     1  UNL1        0.2230
     33 O          64.7817   83.8702   13.6012 O.2     1  UNL1       -0.2751
     34 N          62.3198   84.0379   12.7880 N.am    1  UNL1       -0.3040
     35 H          61.3547   84.0111   12.9804 H       1  UNL1        0.1494
@<TRIPOS>BOND
     1    31    32    1
     2    32    33    2
     3    32    34   am
     4    34    30    1
     5    30    29    1
     6    29    23    1
     7    23    24   ar
     8    24    25   ar
     9    25    26   ar
    10    26    27   ar
    11    27    28   ar
    12    28     1    1
    13     1     2   ar
    14     2     3   ar
    15     3     4   ar
    16     8     4    1
    17     8     9    1
    18     9    10    1
    19    10    11    1
    20    11    12    1
    21    12    13    1
    22    13    15    1
    23    15    16   ar
    24    16    17   ar
    25    17    18   ar
    26    18    19    1
    27    18    20   ar
    28    20    21    1
    29    20    22   ar
    30     4     5   ar
    31     5     6    1
    32     5     7   ar
    33    28    23   ar
    34     7     1   ar
    35    13     8    1
    36    22    15   ar
    37    34    35    1
    38    10    14    1
