@<TRIPOS>MOLECULE
*****
 32 36 0 0 0
SMALL
GASTEIGER

@<TRIPOS>ATOM
      1 C          63.5350   85.8028   15.6687 C.ar    1  UNL1        0.1834
      2 N          63.0312   85.4638   17.0403 N.ar    1  UNL1       -0.1298
      3 N          62.7902   86.7485   17.7761 N.ar    1  UNL1       -0.1272
      4 C          63.1450   87.8815   16.8593 C.ar    1  UNL1        0.1864
      5 C          63.1085   89.3698   17.0422 C.ar    1  UNL1        0.0422
      6 C          63.5322   90.2737   15.9226 C.ar    1  UNL1        0.0241
      7 C          63.9926   89.6892   14.6201 C.ar    1  UNL1        0.1015
      8 N          64.0292   88.2008   14.4373 N.ar    1  UNL1       -0.1626
      9 N          63.6054   87.2969   15.5568 N.ar    1  UNL1       -0.1935
     10 C          64.4164   90.5930   13.5005 C.ar    1  UNL1        0.0217
     11 C          65.6258   91.4661   13.6584 C.ar    1  UNL1        0.0040
     12 C          66.0496   92.3699   12.5387 C.ar    1  UNL1        0.0320
     13 C          65.2639   92.4007   11.2614 C.ar    1  UNL1        0.1674
     14 F          65.6877   93.3045   10.1417 F       1  UNL1       -0.2018
     15 C          64.0545   91.5276   11.1036 C.ar    1  UNL1        0.1674
     16 F          63.2687   91.5583    9.8262 F       1  UNL1       -0.2018
     17 C          63.6307   90.6238   12.2231 C.ar    1  UNL1        0.0335
     18 C          63.9038   84.8201   14.5970 C.3     1  UNL1        0.1560
     19 N          62.8465   84.2752   13.6831 N.pl3   1  UNL1       -0.3252
     20 H          61.9959   83.9472   14.0548 H       1  UNL1        0.1473
     21 C          61.0529   87.2025    9.5042 C.ar    1  UNL1        0.1593
     22 C          60.8141   87.2477   10.9843 C.ar    1  UNL1        0.1357
     23 N          61.4916   86.2569   11.8839 N.ar    1  UNL1       -0.2379
     24 C          62.4078   85.2208   11.3034 C.ar    1  UNL1        0.1122
     25 C          63.0853   84.2300   12.2029 C.ar    1  UNL1        0.0659
     26 C          64.0014   83.1939   11.6224 C.ar    1  UNL1        0.0365
     27 C          64.2402   83.1486   10.1421 C.ar    1  UNL1        0.1002
     28 N          63.5628   84.1395    9.2425 N.ar    1  UNL1       -0.2421
     29 C          62.6465   85.1756    9.8232 C.ar    1  UNL1        0.1032
     30 C          61.9691   86.1664    8.9236 C.ar    1  UNL1        0.0592
     31 C          59.2761   87.7449    7.6879 C.3     1  UNL1        0.2525
     32 O          60.3754   88.1934    8.6046 O.3     1  UNL1       -0.4698
@<TRIPOS>BOND
     1    31    32    1
     2    32    21    1
     3    21    22   ar
     4    22    23   ar
     5    23    24   ar
     6    24    25   ar
     7    25    19    1
     8    19    18    1
     9    18     1    1
    10     1     2   ar
    11     2     3   ar
    12     3     4   ar
    13     4     5   ar
    14     5     6   ar
    15     6     7   ar
    16     7    10    1
    17    10    11   ar
    18    11    12   ar
    19    12    13   ar
    20    13    14    1
    21    13    15   ar
    22    15    16    1
    23    15    17   ar
    24     7     8   ar
    25     8     9   ar
    26    25    26   ar
    27    26    27   ar
    28    27    28   ar
    29    28    29   ar
    30    29    30   ar
    31    30    21   ar
    32    29    24   ar
    33     9     1   ar
    34     9     4   ar
    35    17    10   ar
    36    19    20    1
@<TRIPOS>MOLECULE
*****
 32 36 0 0 0
SMALL
GASTEIGER

@<TRIPOS>ATOM
      1 C          62.3477   89.6938   11.8847 C.ar    1  UNL1        0.1834
      2 N          61.7852   90.5568   10.7944 N.ar    1  UNL1       -0.1298
      3 N          61.3595   89.6621    9.6682 N.ar    1  UNL1       -0.1272
      4 C          61.6590   88.2461   10.0625 C.ar    1  UNL1        0.1864
      5 C          61.4545   86.9416    9.3511 C.ar    1  UNL1        0.0422
      6 C          61.8607   85.6564   10.0096 C.ar    1  UNL1        0.0241
      7 C          62.4714   85.6760   11.3795 C.ar    1  UNL1        0.1015
      8 N          62.6759   86.9807   12.0908 N.ar    1  UNL1       -0.1626
      9 N          62.2697   88.2657   11.4323 N.ar    1  UNL1       -0.1935
     10 C          62.8776   84.3910   12.0380 C.ar    1  UNL1        0.0217
     11 C          62.7202   83.0909   11.3065 C.ar    1  UNL1        0.0040
     12 C          63.1264   81.8059   11.9650 C.ar    1  UNL1        0.0320
     13 C          63.6900   81.8209   13.3550 C.ar    1  UNL1        0.1674
     14 F          64.0962   80.5358   14.0135 F       1  UNL1       -0.2018
     15 C          63.8474   83.1209   14.0865 C.ar    1  UNL1        0.1674
     16 F          64.4111   83.1360   15.4765 F       1  UNL1       -0.2018
     17 C          63.4412   84.4060   13.4280 C.ar    1  UNL1        0.0335
     18 C          62.8926   90.1744   13.1971 C.3     1  UNL1        0.1560
     19 N          64.3634   90.0831   13.4771 N.pl3   1  UNL1       -0.3252
     20 H          64.8185   89.2109   13.4395 H       1  UNL1        0.1473
     21 C          66.0120   94.3704   10.6221 C.ar    1  UNL1        0.1593
     22 C          65.2345   93.1328   10.2848 C.ar    1  UNL1        0.1357
     23 N          64.9442   92.1162   11.3489 N.ar    1  UNL1       -0.2379
     24 C          65.4313   92.3373   12.7502 C.ar    1  UNL1        0.1122
     25 C          65.1409   91.3207   13.8143 C.ar    1  UNL1        0.0659
     26 C          65.6281   91.5417   15.2156 C.ar    1  UNL1        0.0365
     27 C          66.4057   92.7793   15.5530 C.ar    1  UNL1        0.1002
     28 N          66.6960   93.7959   14.4889 N.ar    1  UNL1       -0.2421
     29 C          66.2088   93.5748   13.0875 C.ar    1  UNL1        0.1032
     30 C          66.4992   94.5914   12.0234 C.ar    1  UNL1        0.0592
     31 C          67.5026   95.2246    8.6731 C.3     1  UNL1        0.2525
     32 O          66.3024   95.3870    9.5580 O.3     1  UNL1       -0.4698
@<TRIPOS>BOND
     1    31    32    1
     2    32    21    1
     3    21    22   ar
     4    22    23   ar
     5    23    24   ar
     6    24    25   ar
     7    25    19    1
     8    19    18    1
     9    18     1    1
    10     1     2   ar
    11     2     3   ar
    12     3     4   ar
    13     4     5   ar
    14     5     6   ar
    15     6     7   ar
    16     7    10    1
    17    10    11   ar
    18    11    12   ar
    19    12    13   ar
    20    13    14    1
    21    13    15   ar
    22    15    16    1
    23    15    17   ar
    24     7     8   ar
    25     8     9   ar
    26    25    26   ar
    27    26    27   ar
    28    27    28   ar
    29    28    29   ar
    30    29    30   ar
    31    30    21   ar
    32    29    24   ar
    33     9     1   ar
    34     9     4   ar
    35    17    10   ar
    36    19    20    1
@<TRIPOS>MOLECULE
*****
 32 36 0 0 0
SMALL
GASTEIGER

@<TRIPOS>ATOM
      1 C          63.2977   89.7192   12.7955 C.ar    1  UNL1        0.1834
      2 N          63.1997   89.0785   14.1482 N.ar    1  UNL1       -0.1298
      3 N          64.1117   89.8205   15.0797 N.ar    1  UNL1       -0.1272
      4 C          64.7734   90.9198   14.3026 C.ar    1  UNL1        0.1864
      5 C          65.7689   91.9697   14.6981 C.ar    1  UNL1        0.0422
      6 C          66.2614   92.9571   13.6818 C.ar    1  UNL1        0.0241
      7 C          65.7582   92.8944   12.2701 C.ar    1  UNL1        0.1015
      8 N          64.7627   91.8445   11.8747 N.ar    1  UNL1       -0.1626
      9 N          64.2702   90.8572   12.8909 N.ar    1  UNL1       -0.1935
     10 C          66.2507   93.8818   11.2539 C.ar    1  UNL1        0.0217
     11 C          66.1263   95.3534   11.5164 C.ar    1  UNL1        0.0040
     12 C          66.6188   96.3407   10.5001 C.ar    1  UNL1        0.0320
     13 C          67.2356   95.8564    9.2215 C.ar    1  UNL1        0.1674
     14 F          67.7280   96.8437    8.2052 F       1  UNL1       -0.2018
     15 C          67.3599   94.3848    8.9590 C.ar    1  UNL1        0.1674
     16 F          67.9767   93.9004    7.6803 F       1  UNL1       -0.2018
     17 C          66.8675   93.3975    9.9752 C.ar    1  UNL1        0.0335
     18 C          62.5537   89.2961   11.5635 C.3     1  UNL1        0.1560
     19 N          61.7331   88.0406   11.5771 N.pl3   1  UNL1       -0.3252
     20 H          60.8899   88.0091   12.0843 H       1  UNL1        0.1473
     21 C          63.2541   83.0565   13.0248 C.ar    1  UNL1        0.1593
     22 C          62.7900   84.2640   13.7841 C.ar    1  UNL1        0.1357
     23 N          62.4377   85.5229   13.0484 N.ar    1  UNL1       -0.2379
     24 C          62.5494   85.5742   11.5535 C.ar    1  UNL1        0.1122
     25 C          62.1971   86.8331   10.8178 C.ar    1  UNL1        0.0659
     26 C          62.3089   86.8844    9.3229 C.ar    1  UNL1        0.0365
     27 C          62.7729   85.6768    8.5636 C.ar    1  UNL1        0.1002
     28 N          63.1252   84.4180    9.2992 N.ar    1  UNL1       -0.2421
     29 C          63.0135   84.3667   10.7942 C.ar    1  UNL1        0.1032
     30 C          63.3658   83.1079   11.5299 C.ar    1  UNL1        0.0592
     31 C          62.8827   80.5208   13.4512 C.3     1  UNL1        0.2525
     32 O          63.6064   81.7977   13.7605 O.3     1  UNL1       -0.4698
@<TRIPOS>BOND
     1    31    32    1
     2    32    21    1
     3    21    22   ar
     4    22    23   ar
     5    23    24   ar
     6    24    25   ar
     7    25    19    1
     8    19    18    1
     9    18     1    1
    10     1     2   ar
    11     2     3   ar
    12     3     4   ar
    13     4     5   ar
    14     5     6   ar
    15     6     7   ar
    16     7    10    1
    17    10    11   ar
    18    11    12   ar
    19    12    13   ar
    20    13    14    1
    21    13    15   ar
    22    15    16    1
    23    15    17   ar
    24     7     8   ar
    25     8     9   ar
    26    25    26   ar
    27    26    27   ar
    28    27    28   ar
    29    28    29   ar
    30    29    30   ar
    31    30    21   ar
    32    29    24   ar
    33     9     1   ar
    34     9     4   ar
    35    17    10   ar
    36    19    20    1
@<TRIPOS>MOLECULE
*****
 32 36 0 0 0
SMALL
GASTEIGER

@<TRIPOS>ATOM
      1 C          64.2568   86.8193   14.4377 C.ar    1  UNL1        0.1834
      2 N          64.9249   85.6843   15.1554 N.ar    1  UNL1       -0.1298
      3 N          64.6316   84.4217   14.4004 N.ar    1  UNL1       -0.1272
      4 C          63.7822   84.7765   13.2161 C.ar    1  UNL1        0.1864
      5 C          63.1898   83.9418   12.1197 C.ar    1  UNL1        0.0422
      6 C          62.3656   84.5888   11.0462 C.ar    1  UNL1        0.0241
      7 C          62.1340   86.0706   11.0693 C.ar    1  UNL1        0.1015
      8 N          62.7264   86.9054   12.1657 N.ar    1  UNL1       -0.1626
      9 N          63.5505   86.2583   13.2391 N.ar    1  UNL1       -0.1935
     10 C          61.3099   86.7177    9.9959 C.ar    1  UNL1        0.0217
     11 C          60.8352   85.9093    8.8249 C.ar    1  UNL1        0.0040
     12 C          60.0111   86.5564    7.7515 C.ar    1  UNL1        0.0320
     13 C          59.6617   88.0118    7.8491 C.ar    1  UNL1        0.1674
     14 F          58.8376   88.6589    6.7757 F       1  UNL1       -0.2018
     15 C          60.1363   88.8202    9.0201 C.ar    1  UNL1        0.1674
     16 F          59.7869   90.2757    9.1177 F       1  UNL1       -0.2018
     17 C          60.9604   88.1732   10.0935 C.ar    1  UNL1        0.0335
     18 C          64.2891   88.2622   14.8467 C.3     1  UNL1        0.1560
     19 N          63.3283   89.2373   14.2335 N.pl3   1  UNL1       -0.3252
     20 H          62.3738   89.2043   14.4725 H       1  UNL1        0.1473
     21 C          66.9313   93.2606   14.5181 C.ar    1  UNL1        0.1593
     22 C          66.4379   92.2353   15.4954 C.ar    1  UNL1        0.1357
     23 N          65.4014   91.2360   15.0748 N.ar    1  UNL1       -0.2379
     24 C          64.8582   91.2620   13.6768 C.ar    1  UNL1        0.1122
     25 C          63.8217   90.2626   13.2562 C.ar    1  UNL1        0.0659
     26 C          63.2786   90.2886   11.8583 C.ar    1  UNL1        0.0365
     27 C          63.7719   91.3140   10.8809 C.ar    1  UNL1        0.1002
     28 N          64.8085   92.3134   11.3015 N.ar    1  UNL1       -0.2421
     29 C          65.3516   92.2873   12.6995 C.ar    1  UNL1        0.1032
     30 C          66.3882   93.2866   13.1202 C.ar    1  UNL1        0.0592
     31 C          69.0031   93.8835   15.9568 C.3     1  UNL1        0.2525
     32 O          67.9678   94.2600   14.9387 O.3     1  UNL1       -0.4698
@<TRIPOS>BOND
     1    31    32    1
     2    32    21    1
     3    21    22   ar
     4    22    23   ar
     5    23    24   ar
     6    24    25   ar
     7    25    19    1
     8    19    18    1
     9    18     1    1
    10     1     2   ar
    11     2     3   ar
    12     3     4   ar
    13     4     5   ar
    14     5     6   ar
    15     6     7   ar
    16     7    10    1
    17    10    11   ar
    18    11    12   ar
    19    12    13   ar
    20    13    14    1
    21    13    15   ar
    22    15    16    1
    23    15    17   ar
    24     7     8   ar
    25     8     9   ar
    26    25    26   ar
    27    26    27   ar
    28    27    28   ar
    29    28    29   ar
    30    29    30   ar
    31    30    21   ar
    32    29    24   ar
    33     9     1   ar
    34     9     4   ar
    35    17    10   ar
    36    19    20    1
@<TRIPOS>MOLECULE
*****
 32 36 0 0 0
SMALL
GASTEIGER

@<TRIPOS>ATOM
      1 C          64.4206   90.4699   14.0885 C.ar    1  UNL1        0.1834
      2 N          65.1727   91.7530   14.2832 N.ar    1  UNL1       -0.1298
      3 N          65.0949   92.5344   13.0052 N.ar    1  UNL1       -0.1272
      4 C          64.2948   91.7342   12.0205 C.ar    1  UNL1        0.1864
      5 C          63.8919   92.0025   10.6009 C.ar    1  UNL1        0.0422
      6 C          63.0722   90.9949    9.8506 C.ar    1  UNL1        0.0241
      7 C          62.6555   89.7190   10.5201 C.ar    1  UNL1        0.1015
      8 N          63.0584   89.4506   11.9398 N.ar    1  UNL1       -0.1626
      9 N          63.8781   90.4583   12.6900 N.ar    1  UNL1       -0.1935
     10 C          61.8359   88.7113    9.7699 C.ar    1  UNL1        0.0217
     11 C          62.2165   87.2608    9.8027 C.ar    1  UNL1        0.0040
     12 C          61.3968   86.2532    9.0524 C.ar    1  UNL1        0.0320
     13 C          60.1966   86.6961    8.2694 C.ar    1  UNL1        0.1674
     14 F          59.3768   85.6885    7.5191 F       1  UNL1       -0.2018
     15 C          59.8159   88.1466    8.2366 C.ar    1  UNL1        0.1674
     16 F          58.6156   88.5896    7.4536 F       1  UNL1       -0.2018
     17 C          60.6356   89.1542    8.9868 C.ar    1  UNL1        0.0335
     18 C          64.2424   89.3882   15.1124 C.3     1  UNL1        0.1560
     19 N          64.4365   87.9516   14.7272 N.pl3   1  UNL1       -0.3252
     20 H          65.0443   87.7177   13.9889 H       1  UNL1        0.1473
     21 C          63.0576   82.8605   13.5318 C.ar    1  UNL1        0.1593
     22 C          63.7895   83.9407   12.7921 C.ar    1  UNL1        0.1357
     23 N          64.0052   85.2777   13.4371 N.ar    1  UNL1       -0.2379
     24 C          63.4889   85.5343   14.8218 C.ar    1  UNL1        0.1122
     25 C          63.7045   86.8713   15.4669 C.ar    1  UNL1        0.0659
     26 C          63.1883   87.1280   16.8516 C.ar    1  UNL1        0.0365
     27 C          62.4563   86.0476   17.5914 C.ar    1  UNL1        0.1002
     28 N          62.2406   84.7107   16.9464 N.ar    1  UNL1       -0.2421
     29 C          62.7569   84.4541   15.5615 C.ar    1  UNL1        0.1032
     30 C          62.5413   83.1171   14.9165 C.ar    1  UNL1        0.0592
     31 C          62.4510   80.3415   13.7233 C.3     1  UNL1        0.2525
     32 O          62.8419   81.5235   12.8868 O.3     1  UNL1       -0.4698
@<TRIPOS>BOND
     1    31    32    1
     2    32    21    1
     3    21    22   ar
     4    22    23   ar
     5    23    24   ar
     6    24    25   ar
     7    25    19    1
     8    19    18    1
     9    18     1    1
    10     1     2   ar
    11     2     3   ar
    12     3     4   ar
    13     4     5   ar
    14     5     6   ar
    15     6     7   ar
    16     7    10    1
    17    10    11   ar
    18    11    12   ar
    19    12    13   ar
    20    13    14    1
    21    13    15   ar
    22    15    16    1
    23    15    17   ar
    24     7     8   ar
    25     8     9   ar
    26    25    26   ar
    27    26    27   ar
    28    27    28   ar
    29    28    29   ar
    30    29    30   ar
    31    30    21   ar
    32    29    24   ar
    33     9     1   ar
    34     9     4   ar
    35    17    10   ar
    36    19    20    1
@<TRIPOS>MOLECULE
*****
 32 36 0 0 0
SMALL
GASTEIGER

@<TRIPOS>ATOM
      1 C          64.2922   87.4637   14.4648 C.ar    1  UNL1        0.1834
      2 N          64.9390   86.3346   15.2110 N.ar    1  UNL1       -0.1298
      3 N          64.6061   85.0572   14.4986 N.ar    1  UNL1       -0.1272
      4 C          63.7534   85.3968   13.3121 C.ar    1  UNL1        0.1864
      5 C          63.1287   84.5440   12.2481 C.ar    1  UNL1        0.0422
      6 C          62.3098   85.1783   11.1631 C.ar    1  UNL1        0.0241
      7 C          62.1158   86.6656   11.1423 C.ar    1  UNL1        0.1015
      8 N          62.7406   87.5184   12.2064 N.ar    1  UNL1       -0.1626
      9 N          63.5594   86.8841   13.2913 N.ar    1  UNL1       -0.1935
     10 C          61.2970   87.3000   10.0574 C.ar    1  UNL1        0.0217
     11 C          61.2487   88.7938    9.9303 C.ar    1  UNL1        0.0040
     12 C          60.4299   89.4281    8.8453 C.ar    1  UNL1        0.0320
     13 C          59.6593   88.5687    7.8875 C.ar    1  UNL1        0.1674
     14 F          58.8404   89.2031    6.8025 F       1  UNL1       -0.2018
     15 C          59.7075   87.0749    8.0145 C.ar    1  UNL1        0.1674
     16 F          58.9369   86.2154    7.0567 F       1  UNL1       -0.2018
     17 C          60.5263   86.4405    9.0995 C.ar    1  UNL1        0.0335
     18 C          64.3652   88.9172   14.8284 C.3     1  UNL1        0.1560
     19 N          64.4621   89.9559   13.7505 N.pl3   1  UNL1       -0.3252
     20 H          64.0251   89.8054   12.8812 H       1  UNL1        0.1473
     21 C          65.8822   94.1438   10.6370 C.ar    1  UNL1        0.1593
     22 C          65.1195   92.8760   10.3904 C.ar    1  UNL1        0.1357
     23 N          64.9004   91.9026   11.5104 N.ar    1  UNL1       -0.2379
     24 C          65.4439   92.1971   12.8771 C.ar    1  UNL1        0.1122
     25 C          65.2248   91.2237   13.9972 C.ar    1  UNL1        0.0659
     26 C          65.7683   91.5181   15.3638 C.ar    1  UNL1        0.0365
     27 C          66.5310   92.7860   15.6105 C.ar    1  UNL1        0.1002
     28 N          66.7502   93.7594   14.4904 N.ar    1  UNL1       -0.2421
     29 C          66.2066   93.4649   13.1237 C.ar    1  UNL1        0.1032
     30 C          66.4257   94.4383   12.0037 C.ar    1  UNL1        0.0592
     31 C          67.3261   95.0088    8.6579 C.3     1  UNL1        0.2525
     32 O          66.1013   95.1172    9.5170 O.3     1  UNL1       -0.4698
@<TRIPOS>BOND
     1    31    32    1
     2    32    21    1
     3    21    22   ar
     4    22    23   ar
     5    23    24   ar
     6    24    25   ar
     7    25    19    1
     8    19    18    1
     9    18     1    1
    10     1     2   ar
    11     2     3   ar
    12     3     4   ar
    13     4     5   ar
    14     5     6   ar
    15     6     7   ar
    16     7    10    1
    17    10    11   ar
    18    11    12   ar
    19    12    13   ar
    20    13    14    1
    21    13    15   ar
    22    15    16    1
    23    15    17   ar
    24     7     8   ar
    25     8     9   ar
    26    25    26   ar
    27    26    27   ar
    28    27    28   ar
    29    28    29   ar
    30    29    30   ar
    31    30    21   ar
    32    29    24   ar
    33     9     1   ar
    34     9     4   ar
    35    17    10   ar
    36    19    20    1
@<TRIPOS>MOLECULE
*****
 32 36 0 0 0
SMALL
GASTEIGER

@<TRIPOS>ATOM
      1 C          60.6499   89.5266   10.9855 C.ar    1  UNL1        0.1834
      2 N          59.9649   90.2284    9.8505 N.ar    1  UNL1       -0.1298
      3 N          59.9335   89.2929    8.6784 N.ar    1  UNL1       -0.1272
      4 C          60.5992   88.0129    9.0891 C.ar    1  UNL1        0.1864
      5 C          60.8594   86.7345    8.3488 C.ar    1  UNL1        0.0422
      6 C          61.5623   85.6005    9.0344 C.ar    1  UNL1        0.0241
      7 C          62.0050   85.7450   10.4603 C.ar    1  UNL1        0.1015
      8 N          61.7448   87.0234   11.2005 N.ar    1  UNL1       -0.1626
      9 N          61.0419   88.1574   10.5149 N.ar    1  UNL1       -0.1935
     10 C          62.7079   84.6111   11.1459 C.ar    1  UNL1        0.0217
     11 C          63.5454   83.6559   10.3483 C.ar    1  UNL1        0.0040
     12 C          64.2483   82.5219   11.0340 C.ar    1  UNL1        0.0320
     13 C          64.1138   82.3432   12.5172 C.ar    1  UNL1        0.1674
     14 F          64.8167   81.2093   13.2029 F       1  UNL1       -0.2018
     15 C          63.2763   83.2984   13.3148 C.ar    1  UNL1        0.1674
     16 F          63.1417   83.1198   14.7980 F       1  UNL1       -0.2018
     17 C          62.5734   84.4324   12.6292 C.ar    1  UNL1        0.0335
     18 C          60.8992   90.0944   12.3514 C.3     1  UNL1        0.1560
     19 N          62.2738   90.0351   12.9488 N.pl3   1  UNL1       -0.3252
     20 H          62.4604   89.4199   13.6944 H       1  UNL1        0.1473
     21 C          66.3458   92.7768   15.2187 C.ar    1  UNL1        0.1593
     22 C          65.2554   91.8987   15.7572 C.ar    1  UNL1        0.1357
     23 N          64.2616   91.2775   14.8211 N.ar    1  UNL1       -0.2379
     24 C          64.3580   91.5344   13.3464 C.ar    1  UNL1        0.1122
     25 C          63.3641   90.9133   12.4103 C.ar    1  UNL1        0.0659
     26 C          63.4606   91.1702   10.9357 C.ar    1  UNL1        0.0365
     27 C          64.5510   92.0483   10.3971 C.ar    1  UNL1        0.1002
     28 N          65.5448   92.6695   11.3332 N.ar    1  UNL1       -0.2421
     29 C          65.4483   92.4126   12.8079 C.ar    1  UNL1        0.1032
     30 C          66.4422   93.0337   13.7441 C.ar    1  UNL1        0.0592
     31 C          68.7935   93.4358   15.7879 C.3     1  UNL1        0.2525
     32 O          67.3396   93.3980   16.1548 O.3     1  UNL1       -0.4698
@<TRIPOS>BOND
     1    31    32    1
     2    32    21    1
     3    21    22   ar
     4    22    23   ar
     5    23    24   ar
     6    24    25   ar
     7    25    19    1
     8    19    18    1
     9    18     1    1
    10     1     2   ar
    11     2     3   ar
    12     3     4   ar
    13     4     5   ar
    14     5     6   ar
    15     6     7   ar
    16     7    10    1
    17    10    11   ar
    18    11    12   ar
    19    12    13   ar
    20    13    14    1
    21    13    15   ar
    22    15    16    1
    23    15    17   ar
    24     7     8   ar
    25     8     9   ar
    26    25    26   ar
    27    26    27   ar
    28    27    28   ar
    29    28    29   ar
    30    29    30   ar
    31    30    21   ar
    32    29    24   ar
    33     9     1   ar
    34     9     4   ar
    35    17    10   ar
    36    19    20    1
@<TRIPOS>MOLECULE
*****
 32 36 0 0 0
SMALL
GASTEIGER

@<TRIPOS>ATOM
      1 C          63.9919   91.8489   10.7924 C.ar    1  UNL1        0.1834
      2 N          64.8339   93.0364   10.4305 N.ar    1  UNL1       -0.1298
      3 N          65.7805   93.2963   11.5647 N.ar    1  UNL1       -0.1272
      4 C          65.5237   92.2694   12.6275 C.ar    1  UNL1        0.1864
      5 C          66.1535   92.0333   13.9681 C.ar    1  UNL1        0.0422
      6 C          65.6780   90.9026   14.8316 C.ar    1  UNL1        0.0241
      7 C          64.5725   90.0081   14.3542 C.ar    1  UNL1        0.1015
      8 N          63.9427   90.2442   13.0135 N.ar    1  UNL1       -0.1626
      9 N          64.4183   91.3749   12.1501 N.ar    1  UNL1       -0.1935
     10 C          64.0970   88.8774   15.2176 C.ar    1  UNL1        0.0217
     11 C          63.2838   89.1621   16.4455 C.ar    1  UNL1        0.0040
     12 C          62.8082   88.0313   17.3089 C.ar    1  UNL1        0.0320
     13 C          63.1458   86.6161   16.9444 C.ar    1  UNL1        0.1674
     14 F          62.6703   85.4853   17.8078 F       1  UNL1       -0.2018
     15 C          63.9590   86.3314   15.7165 C.ar    1  UNL1        0.1674
     16 F          64.2967   84.9161   15.3520 F       1  UNL1       -0.2018
     17 C          64.4346   87.4621   14.8532 C.ar    1  UNL1        0.0335
     18 C          62.9130   91.2420    9.9452 C.3     1  UNL1        0.1560
     19 N          61.7982   90.4719   10.5887 N.pl3   1  UNL1       -0.3252
     20 H          61.4408   90.7587   11.4600 H       1  UNL1        0.1473
     21 C          62.3128   85.1412   11.3428 C.ar    1  UNL1        0.1593
     22 C          62.8830   86.3482   12.0268 C.ar    1  UNL1        0.1357
     23 N          62.5214   87.7227   11.5475 N.ar    1  UNL1       -0.2379
     24 C          61.5896   87.8903   10.3840 C.ar    1  UNL1        0.1122
     25 C          61.2280   89.2649    9.9046 C.ar    1  UNL1        0.0659
     26 C          60.2962   89.4325    8.7412 C.ar    1  UNL1        0.0365
     27 C          59.7259   88.2254    8.0571 C.ar    1  UNL1        0.1002
     28 N          60.0875   86.8508    8.5365 N.ar    1  UNL1       -0.2421
     29 C          61.0194   86.6833    9.7000 C.ar    1  UNL1        0.1032
     30 C          61.3810   85.3087   10.1794 C.ar    1  UNL1        0.0592
     31 C          64.0768   83.4715   12.2648 C.3     1  UNL1        0.2525
     32 O          62.6744   83.7666   11.8222 O.3     1  UNL1       -0.4698
@<TRIPOS>BOND
     1    31    32    1
     2    32    21    1
     3    21    22   ar
     4    22    23   ar
     5    23    24   ar
     6    24    25   ar
     7    25    19    1
     8    19    18    1
     9    18     1    1
    10     1     2   ar
    11     2     3   ar
    12     3     4   ar
    13     4     5   ar
    14     5     6   ar
    15     6     7   ar
    16     7    10    1
    17    10    11   ar
    18    11    12   ar
    19    12    13   ar
    20    13    14    1
    21    13    15   ar
    22    15    16    1
    23    15    17   ar
    24     7     8   ar
    25     8     9   ar
    26    25    26   ar
    27    26    27   ar
    28    27    28   ar
    29    28    29   ar
    30    29    30   ar
    31    30    21   ar
    32    29    24   ar
    33     9     1   ar
    34     9     4   ar
    35    17    10   ar
    36    19    20    1
@<TRIPOS>MOLECULE
*****
 32 36 0 0 0
SMALL
GASTEIGER

@<TRIPOS>ATOM
      1 C          61.2679   86.2529    9.0840 C.ar    1  UNL1        0.1834
      2 N          60.0357   86.2820    8.2291 N.ar    1  UNL1       -0.1298
      3 N          59.4162   87.6422    8.3549 N.ar    1  UNL1       -0.1272
      4 C          60.2655   88.4540    9.2875 C.ar    1  UNL1        0.1864
      5 C          60.1447   89.8639    9.7847 C.ar    1  UNL1        0.0422
      6 C          61.1683   90.4154   10.7325 C.ar    1  UNL1        0.0241
      7 C          62.3126   89.5567   11.1831 C.ar    1  UNL1        0.1015
      8 N          62.4335   88.1467   10.6859 N.ar    1  UNL1       -0.1626
      9 N          61.4099   87.5953    9.7381 N.ar    1  UNL1       -0.1935
     10 C          63.3362   90.1081   12.1308 C.ar    1  UNL1        0.0217
     11 C          63.6922   89.3493   13.3748 C.ar    1  UNL1        0.0040
     12 C          64.7158   89.9008   14.3226 C.ar    1  UNL1        0.0320
     13 C          65.3833   91.2109   14.0264 C.ar    1  UNL1        0.1674
     14 F          66.4070   91.7624   14.9741 F       1  UNL1       -0.2018
     15 C          65.0274   91.9697   12.7824 C.ar    1  UNL1        0.1674
     16 F          65.6949   93.2800   12.4861 F       1  UNL1       -0.2018
     17 C          64.0038   91.4183   11.8347 C.ar    1  UNL1        0.0335
     18 C          62.1953   85.0863    9.2548 C.3     1  UNL1        0.1560
     19 N          63.1744   85.0667   10.3909 N.pl3   1  UNL1       -0.3252
     20 H          63.9032   85.7279   10.4242 H       1  UNL1        0.1473
     21 C          63.5038   85.2500   15.7861 C.ar    1  UNL1        0.1593
     22 C          63.6349   86.2768   14.7006 C.ar    1  UNL1        0.1357
     23 N          63.4814   85.8735   13.2641 N.ar    1  UNL1       -0.2379
     24 C          63.1968   84.4432   12.9129 C.ar    1  UNL1        0.1122
     25 C          63.0433   84.0399   11.4764 C.ar    1  UNL1        0.0659
     26 C          62.7587   82.6096   11.1253 C.ar    1  UNL1        0.0365
     27 C          62.6276   81.5826   12.2107 C.ar    1  UNL1        0.1002
     28 N          62.7811   81.9860   13.6473 N.ar    1  UNL1       -0.2421
     29 C          63.0657   83.4163   13.9984 C.ar    1  UNL1        0.1032
     30 C          63.2192   83.8197   15.4350 C.ar    1  UNL1        0.0592
     31 C          62.6110   86.5049   17.8784 C.3     1  UNL1        0.2525
     32 O          63.6572   85.6533   17.2227 O.3     1  UNL1       -0.4698
@<TRIPOS>BOND
     1    31    32    1
     2    32    21    1
     3    21    22   ar
     4    22    23   ar
     5    23    24   ar
     6    24    25   ar
     7    25    19    1
     8    19    18    1
     9    18     1    1
    10     1     2   ar
    11     2     3   ar
    12     3     4   ar
    13     4     5   ar
    14     5     6   ar
    15     6     7   ar
    16     7    10    1
    17    10    11   ar
    18    11    12   ar
    19    12    13   ar
    20    13    14    1
    21    13    15   ar
    22    15    16    1
    23    15    17   ar
    24     7     8   ar
    25     8     9   ar
    26    25    26   ar
    27    26    27   ar
    28    27    28   ar
    29    28    29   ar
    30    29    30   ar
    31    30    21   ar
    32    29    24   ar
    33     9     1   ar
    34     9     4   ar
    35    17    10   ar
    36    19    20    1
