@<TRIPOS>MOLECULE
*****
 26 29 0 0 0
SMALL
GASTEIGER

@<TRIPOS>ATOM
      1 N          62.3525   90.5421   11.2736 N.3     1  UNL1       -0.1490
      2 C          63.2291   91.3847   10.3950 C.3     1  UNL1        0.1409
      3 C          64.5118   91.9463   10.9328 C.ar    1  UNL1        0.0770
      4 C          65.5719   92.8040   10.3080 C.ar    1  UNL1        0.1148
      5 N          66.6332   93.0533   11.3383 N.ar    1  UNL1       -0.2226
      6 C          66.2290   92.3495   12.5998 C.ar    1  UNL1        0.1796
      7 N          64.9179   91.6653   12.3492 N.ar    1  UNL1       -0.2923
      8 C          64.0413   90.8229   13.2278 C.3     1  UNL1        0.2338
      9 S          62.7586   90.2613   12.6899 S.O2    1  UNL1        0.0628
     10 O          61.4604   89.5117   12.6377 O.2     1  UNL1       -0.1555
     11 O          62.7139   89.7200   14.0882 O.2     1  UNL1       -0.1555
     12 C          59.7616   90.6197   11.0965 C.3     1  UNL1        0.0240
     13 C          61.0697   89.9805   10.7357 C.3     1  UNL1        0.1019
     14 C          61.0952   88.7797    9.8372 C.ar    1  UNL1       -0.0061
     15 C          62.2101   87.7826    9.9494 C.ar    1  UNL1       -0.0021
     16 C          62.2355   86.5817    9.0507 C.ar    1  UNL1        0.0111
     17 C          61.1461   86.3781    8.0400 C.ar    1  UNL1        0.0577
     18 CL         61.1715   85.1774    7.1414 Cl      1  UNL1       -0.0822
     19 C          60.0311   87.3754    7.9278 C.ar    1  UNL1        0.0111
     20 C          60.0057   88.5762    8.8264 C.ar    1  UNL1       -0.0021
     21 C          64.4475   90.5419   14.6442 C.3     1  UNL1        0.0538
     22 C          65.1714   91.5884   15.4384 C.3     1  UNL1        0.0583
     23 C          64.7048   91.7051   16.0742 C.3     1  UNL1        0.0051
     24 C          64.0860   91.5537   16.4733 C.3     1  UNL1        0.1445
     25 O          64.8099   92.6002   17.2675 O.3     1  UNL1       -0.3536
     26 C          65.8953   92.6349   16.2327 C.3     1  UNL1        0.1445
@<TRIPOS>BOND
     1    13    12    1
     2    13    14    1
     3    14    15   ar
     4    15    16   ar
     5    16    17   ar
     6    17    18    1
     7    17    19   ar
     8    19    20   ar
     9    13     1    1
    10     1     2    1
    11     2     3    1
    12     3     4   ar
    13     4     5   ar
    14     5     6   ar
    15     6     7   ar
    16     7     8    1
    17     8    21    1
    18    21    22    1
    19    22    23    1
    20    22    24    1
    21    24    25    1
    22    25    26    1
    23     8     9    1
    24     9    10    2
    25     9    11    2
    26    20    14   ar
    27     9     1    1
    28     7     3   ar
    29    26    22    1
@<TRIPOS>MOLECULE
*****
 26 29 0 0 0
SMALL
GASTEIGER

@<TRIPOS>ATOM
      1 N          62.2855   90.1555   11.7526 N.3     1  UNL1       -0.1490
      2 C          62.7546   89.8053   13.1337 C.3     1  UNL1        0.1409
      3 C          64.0088   90.4219   13.6785 C.ar    1  UNL1        0.0770
      4 C          64.7125   90.2694   14.9944 C.ar    1  UNL1        0.1148
      5 N          65.9324   91.1419   14.9714 N.ar    1  UNL1       -0.2226
      6 C          65.9827   91.8336   13.6413 C.ar    1  UNL1        0.1796
      7 N          64.7938   91.3886   12.8423 N.ar    1  UNL1       -0.2923
      8 C          64.3246   91.7387   11.4612 C.3     1  UNL1        0.2338
      9 S          63.0704   91.1221   10.9164 S.O2    1  UNL1        0.0628
     10 O          61.9542   90.8027    9.9666 O.2     1  UNL1       -0.1555
     11 O          63.4678   91.9778    9.7503 O.2     1  UNL1       -0.1555
     12 C          59.6917   90.0277   11.6733 C.3     1  UNL1        0.0240
     13 C          61.0312   89.5388   11.2078 C.3     1  UNL1        0.1019
     14 C          61.1165   88.4334   10.1974 C.ar    1  UNL1       -0.0061
     15 C          62.2602   87.4639   10.2413 C.ar    1  UNL1       -0.0021
     16 C          62.3455   86.3585    9.2309 C.ar    1  UNL1        0.0111
     17 C          61.2872   86.2226    8.1768 C.ar    1  UNL1        0.0577
     18 CL         61.3724   85.1173    7.1664 Cl      1  UNL1       -0.0822
     19 C          60.1434   87.1922    8.1329 C.ar    1  UNL1        0.0111
     20 C          60.0581   88.2976    9.1432 C.ar    1  UNL1       -0.0021
     21 C          65.1096   92.7054   10.6250 C.3     1  UNL1        0.0538
     22 C          66.5669   92.4618   10.3661 C.3     1  UNL1        0.0583
     23 C          66.8496   93.1796   10.1651 C.3     1  UNL1        0.0051
     24 C          66.7518   93.9145   10.0408 C.3     1  UNL1        0.1445
     25 O          68.2091   93.6709    9.7819 O.3     1  UNL1       -0.3536
     26 C          68.0242   92.2183   10.1072 C.3     1  UNL1        0.1445
@<TRIPOS>BOND
     1    13    12    1
     2    13    14    1
     3    14    15   ar
     4    15    16   ar
     5    16    17   ar
     6    17    18    1
     7    17    19   ar
     8    19    20   ar
     9    13     1    1
    10     1     2    1
    11     2     3    1
    12     3     4   ar
    13     4     5   ar
    14     5     6   ar
    15     6     7   ar
    16     7     8    1
    17     8    21    1
    18    21    22    1
    19    22    23    1
    20    22    24    1
    21    24    25    1
    22    25    26    1
    23     8     9    1
    24     9    10    2
    25     9    11    2
    26    20    14   ar
    27     9     1    1
    28     7     3   ar
    29    26    22    1
@<TRIPOS>MOLECULE
*****
 26 29 0 0 0
SMALL
GASTEIGER

@<TRIPOS>ATOM
      1 N          62.0432   87.0190   11.5138 N.3     1  UNL1       -0.1490
      2 C          62.3520   85.6737   12.1012 C.3     1  UNL1        0.1409
      3 C          63.3157   85.5581   13.2449 C.ar    1  UNL1        0.0770
      4 C          63.8121   84.3760   14.0235 C.ar    1  UNL1        0.1148
      5 N          64.7737   84.8751   15.0609 N.ar    1  UNL1       -0.2226
      6 C          64.8716   86.3656   14.9235 C.ar    1  UNL1        0.1796
      7 N          63.9705   86.7877   13.8011 N.ar    1  UNL1       -0.2923
      8 C          63.6616   88.1329   13.2137 C.3     1  UNL1        0.2338
      9 S          62.6979   88.2485   12.0700 S.O2    1  UNL1        0.0628
     10 O          61.8607   88.8656   10.9892 O.2     1  UNL1       -0.1555
     11 O          63.0619   89.6924   12.2508 O.2     1  UNL1       -0.1555
     12 C          59.8775   88.0241   10.4892 C.3     1  UNL1        0.0240
     13 C          61.0794   87.1346   10.3701 C.3     1  UNL1        0.1019
     14 C          61.3177   86.3607    9.1074 C.ar    1  UNL1       -0.0061
     15 C          60.1973   86.1541    8.1317 C.ar    1  UNL1       -0.0021
     16 C          60.4356   85.3802    6.8690 C.ar    1  UNL1        0.0111
     17 C          61.7942   84.8130    6.5821 C.ar    1  UNL1        0.0577
     18 CL         62.0326   84.0391    5.3194 Cl      1  UNL1       -0.0822
     19 C          62.9146   85.0196    7.5579 C.ar    1  UNL1        0.0111
     20 C          62.6764   85.7935    8.8206 C.ar    1  UNL1       -0.0021
     21 C          64.3164   89.3625   13.7699 C.3     1  UNL1        0.0538
     22 C          63.8838   89.9066   15.0990 C.3     1  UNL1        0.0583
     23 C          64.2576   90.6088   15.1509 C.3     1  UNL1        0.0051
     24 C          64.7167   91.1326   14.8682 C.3     1  UNL1        0.1445
     25 O          64.2840   91.6767   16.1974 O.3     1  UNL1       -0.3536
     26 C          63.4511   90.4507   16.4282 C.3     1  UNL1        0.1445
@<TRIPOS>BOND
     1    13    12    1
     2    13    14    1
     3    14    15   ar
     4    15    16   ar
     5    16    17   ar
     6    17    18    1
     7    17    19   ar
     8    19    20   ar
     9    13     1    1
    10     1     2    1
    11     2     3    1
    12     3     4   ar
    13     4     5   ar
    14     5     6   ar
    15     6     7   ar
    16     7     8    1
    17     8    21    1
    18    21    22    1
    19    22    23    1
    20    22    24    1
    21    24    25    1
    22    25    26    1
    23     8     9    1
    24     9    10    2
    25     9    11    2
    26    20    14   ar
    27     9     1    1
    28     7     3   ar
    29    26    22    1
@<TRIPOS>MOLECULE
*****
 26 29 0 0 0
SMALL
GASTEIGER

@<TRIPOS>ATOM
      1 N          62.7663   89.0795   12.2041 N.3     1  UNL1       -0.1490
      2 C          61.9155   89.4994   11.0421 C.3     1  UNL1        0.1409
      3 C          61.2952   88.4623   10.1534 C.ar    1  UNL1        0.0770
      4 C          60.4163   88.5736    8.9430 C.ar    1  UNL1        0.1148
      5 N          60.1035   87.1856    8.4682 N.ar    1  UNL1       -0.2226
      6 C          60.7891   86.2164    9.3851 C.ar    1  UNL1        0.1796
      7 N          61.5256   87.0055   10.4267 N.ar    1  UNL1       -0.2923
      8 C          62.3763   86.5857   11.5886 C.3     1  UNL1        0.2338
      9 S          62.9967   87.6228   12.4773 S.O2    1  UNL1        0.0628
     10 O          63.7931   88.2267   13.5958 O.2     1  UNL1       -0.1555
     11 O          63.5036   86.3757   13.1390 O.2     1  UNL1       -0.1555
     12 C          63.1113   90.1025   14.5673 C.3     1  UNL1        0.0240
     13 C          63.3866   90.1166   13.0928 C.3     1  UNL1        0.1019
     14 C          64.2823   91.1676   12.5071 C.ar    1  UNL1       -0.0061
     15 C          65.3454   91.8035   13.3529 C.ar    1  UNL1       -0.0021
     16 C          66.2410   92.8546   12.7671 C.ar    1  UNL1        0.0111
     17 C          66.0735   93.2698   11.3356 C.ar    1  UNL1        0.0577
     18 CL         66.9690   94.3208   10.7497 Cl      1  UNL1       -0.0822
     19 C          65.0103   92.6339   10.4897 C.ar    1  UNL1        0.0111
     20 C          64.1147   91.5828   11.0754 C.ar    1  UNL1       -0.0021
     21 C          62.6067   85.1289   11.8619 C.3     1  UNL1        0.0538
     22 C          63.2853   84.2714   10.8351 C.3     1  UNL1        0.0583
     23 C          63.2414   83.5357   11.1389 C.3     1  UNL1        0.0051
     24 C          63.0310   83.0584   11.6802 C.3     1  UNL1        0.1445
     25 O          63.7095   82.2009   10.6535 O.3     1  UNL1       -0.3536
     26 C          63.9638   83.4139    9.8084 C.3     1  UNL1        0.1445
@<TRIPOS>BOND
     1    13    12    1
     2    13    14    1
     3    14    15   ar
     4    15    16   ar
     5    16    17   ar
     6    17    18    1
     7    17    19   ar
     8    19    20   ar
     9    13     1    1
    10     1     2    1
    11     2     3    1
    12     3     4   ar
    13     4     5   ar
    14     5     6   ar
    15     6     7   ar
    16     7     8    1
    17     8    21    1
    18    21    22    1
    19    22    23    1
    20    22    24    1
    21    24    25    1
    22    25    26    1
    23     8     9    1
    24     9    10    2
    25     9    11    2
    26    20    14   ar
    27     9     1    1
    28     7     3   ar
    29    26    22    1
@<TRIPOS>MOLECULE
*****
 26 29 0 0 0
SMALL
GASTEIGER

@<TRIPOS>ATOM
      1 N          63.5062   88.4697   13.3124 N.3     1  UNL1       -0.1490
      2 C          62.6915   88.4998   12.0532 C.3     1  UNL1        0.1409
      3 C          62.3375   87.2185   11.3582 C.ar    1  UNL1        0.0770
      4 C          61.5535   86.9368   10.1109 C.ar    1  UNL1        0.1148
      5 N          61.5296   85.4513    9.9041 N.ar    1  UNL1       -0.2226
      6 C          62.2989   84.8150   11.0236 C.ar    1  UNL1        0.1796
      7 N          62.7983   85.9072   11.9223 N.ar    1  UNL1       -0.2923
      8 C          63.6129   85.8772   13.1814 C.3     1  UNL1        0.2338
      9 S          63.9669   87.1584   13.8764 S.O2    1  UNL1        0.0628
     10 O          64.5513   88.0975   14.8896 O.2     1  UNL1       -0.1555
     11 O          64.6306   86.1733   14.7924 O.2     1  UNL1       -0.1555
     12 C          63.4697   89.9594   15.4407 C.3     1  UNL1        0.0240
     13 C          63.8602   89.7510   14.0075 C.3     1  UNL1        0.1019
     14 C          64.6046   90.8238   13.2693 C.ar    1  UNL1       -0.0061
     15 C          65.8479   91.4176   13.8622 C.ar    1  UNL1       -0.0021
     16 C          66.5923   92.4904   13.1239 C.ar    1  UNL1        0.0111
     17 C          66.0934   92.9694   11.7930 C.ar    1  UNL1        0.0577
     18 CL         66.8378   94.0422   11.0547 Cl      1  UNL1       -0.0822
     19 C          64.8500   92.3756   11.2001 C.ar    1  UNL1        0.0111
     20 C          64.1056   91.3028   11.9383 C.ar    1  UNL1       -0.0021
     21 C          64.0737   84.5659   13.7455 C.3     1  UNL1        0.0538
     22 C          63.0703   83.5117   14.1089 C.3     1  UNL1        0.0583
     23 C          63.4787   82.8294   14.0531 C.3     1  UNL1        0.0051
     24 C          64.1125   82.4513   13.9101 C.3     1  UNL1        0.1445
     25 O          63.1091   81.3972   14.2735 O.3     1  UNL1       -0.3536
     26 C          62.0670   82.4576   14.4723 C.3     1  UNL1        0.1445
@<TRIPOS>BOND
     1    13    12    1
     2    13    14    1
     3    14    15   ar
     4    15    16   ar
     5    16    17   ar
     6    17    18    1
     7    17    19   ar
     8    19    20   ar
     9    13     1    1
    10     1     2    1
    11     2     3    1
    12     3     4   ar
    13     4     5   ar
    14     5     6   ar
    15     6     7   ar
    16     7     8    1
    17     8    21    1
    18    21    22    1
    19    22    23    1
    20    22    24    1
    21    24    25    1
    22    25    26    1
    23     8     9    1
    24     9    10    2
    25     9    11    2
    26    20    14   ar
    27     9     1    1
    28     7     3   ar
    29    26    22    1
@<TRIPOS>MOLECULE
*****
 26 29 0 0 0
SMALL
GASTEIGER

@<TRIPOS>ATOM
      1 N          63.4679   86.7711   13.1907 N.3     1  UNL1       -0.1490
      2 C          62.6229   86.4847   11.9848 C.3     1  UNL1        0.1409
      3 C          62.1775   87.6087   11.0970 C.ar    1  UNL1        0.0770
      4 C          61.3455   87.6328    9.8492 C.ar    1  UNL1        0.1148
      5 N          61.2310   89.0581    9.3960 N.ar    1  UNL1       -0.2226
      6 C          61.9922   89.9149   10.3637 C.ar    1  UNL1        0.1796
      7 N          62.5772   89.0191   11.4150 N.ar    1  UNL1       -0.2923
      8 C          63.4222   89.3055   12.6208 C.3     1  UNL1        0.2338
      9 S          63.8675   88.1814   13.5086 S.O2    1  UNL1        0.0628
     10 O          64.5318   87.4603   14.6438 O.2     1  UNL1       -0.1555
     11 O          64.4979   89.3413   14.2209 O.2     1  UNL1       -0.1555
     12 C          64.7142   85.9385   15.3129 C.3     1  UNL1        0.0240
     13 C          63.9133   85.6470   14.0785 C.3     1  UNL1        0.1019
     14 C          63.5577   84.2316   13.7320 C.ar    1  UNL1       -0.0061
     15 C          64.2856   83.5244   12.6275 C.ar    1  UNL1       -0.0021
     16 C          63.9299   82.1089   12.2810 C.ar    1  UNL1        0.0111
     17 C          62.8465   81.4007   13.0390 C.ar    1  UNL1        0.0577
     18 CL         62.4908   79.9853   12.6926 Cl      1  UNL1       -0.0822
     19 C          62.1186   82.1081   14.1436 C.ar    1  UNL1        0.0111
     20 C          62.4742   83.5235   14.4901 C.ar    1  UNL1       -0.0021
     21 C          63.8219   90.7158   12.9388 C.3     1  UNL1        0.0538
     22 C          64.3865   91.5960   11.8634 C.3     1  UNL1        0.0583
     23 C          64.9090   92.0593   12.2479 C.3     1  UNL1        0.0051
     24 C          65.2591   92.2749   12.8772 C.3     1  UNL1        0.1445
     25 O          65.8236   93.1551   11.8018 O.3     1  UNL1       -0.3536
     26 C          64.9510   92.4762   10.7880 C.3     1  UNL1        0.1445
@<TRIPOS>BOND
     1    13    12    1
     2    13    14    1
     3    14    15   ar
     4    15    16   ar
     5    16    17   ar
     6    17    18    1
     7    17    19   ar
     8    19    20   ar
     9    13     1    1
    10     1     2    1
    11     2     3    1
    12     3     4   ar
    13     4     5   ar
    14     5     6   ar
    15     6     7   ar
    16     7     8    1
    17     8    21    1
    18    21    22    1
    19    22    23    1
    20    22    24    1
    21    24    25    1
    22    25    26    1
    23     8     9    1
    24     9    10    2
    25     9    11    2
    26    20    14   ar
    27     9     1    1
    28     7     3   ar
    29    26    22    1
@<TRIPOS>MOLECULE
*****
 26 29 0 0 0
SMALL
GASTEIGER

@<TRIPOS>ATOM
      1 N          63.7046   88.1735   13.9020 N.3     1  UNL1       -0.1490
      2 C          64.4387   87.0151   14.5098 C.3     1  UNL1        0.1409
      3 C          64.2936   85.6432   13.9210 C.ar    1  UNL1        0.0770
      4 C          64.8887   84.3198   14.3012 C.ar    1  UNL1        0.1148
      5 N          64.3774   83.2883   13.3397 N.ar    1  UNL1       -0.2226
      6 C          63.4663   83.9742   12.3652 C.ar    1  UNL1        0.1796
      7 N          63.4145   85.4296   12.7245 N.ar    1  UNL1       -0.2923
      8 C          62.6805   86.5880   12.1168 C.3     1  UNL1        0.2338
      9 S          62.8256   87.9599   12.7056 S.O2    1  UNL1        0.0628
     10 O          62.6433   89.4357   12.9025 O.2     1  UNL1       -0.1555
     11 O          61.8832   88.2589   11.5775 O.2     1  UNL1       -0.1555
     12 C          63.2054   89.8692   15.8061 C.3     1  UNL1        0.0240
     13 C          63.8497   89.5456   14.4908 C.3     1  UNL1        0.1019
     14 C          64.6390   90.5939   13.7642 C.ar    1  UNL1       -0.0061
     15 C          64.1092   91.1831   12.4905 C.ar    1  UNL1       -0.0021
     16 C          64.8986   92.2315   11.7640 C.ar    1  UNL1        0.0111
     17 C          66.2176   92.6906   12.3110 C.ar    1  UNL1        0.0577
     18 CL         67.0070   93.7389   11.5845 Cl      1  UNL1       -0.0822
     19 C          66.7474   92.1013   13.5847 C.ar    1  UNL1        0.0111
     20 C          65.9581   91.0530   14.3113 C.ar    1  UNL1       -0.0021
     21 C          61.8014   86.3744   10.9203 C.3     1  UNL1        0.0538
     22 C          62.3884   85.8547    9.6415 C.3     1  UNL1        0.0583
     23 C          61.7986   85.9362    9.1114 C.3     1  UNL1        0.0051
     24 C          61.0983   86.1424    8.9324 C.3     1  UNL1        0.1445
     25 O          61.6853   85.6227    7.6536 O.3     1  UNL1       -0.3536
     26 C          62.9755   85.3350    8.3627 C.3     1  UNL1        0.1445
@<TRIPOS>BOND
     1    13    12    1
     2    13    14    1
     3    14    15   ar
     4    15    16   ar
     5    16    17   ar
     6    17    18    1
     7    17    19   ar
     8    19    20   ar
     9    13     1    1
    10     1     2    1
    11     2     3    1
    12     3     4   ar
    13     4     5   ar
    14     5     6   ar
    15     6     7   ar
    16     7     8    1
    17     8    21    1
    18    21    22    1
    19    22    23    1
    20    22    24    1
    21    24    25    1
    22    25    26    1
    23     8     9    1
    24     9    10    2
    25     9    11    2
    26    20    14   ar
    27     9     1    1
    28     7     3   ar
    29    26    22    1
@<TRIPOS>MOLECULE
*****
 26 29 0 0 0
SMALL
GASTEIGER

@<TRIPOS>ATOM
      1 N          62.5080   85.8129   11.7674 N.3     1  UNL1       -0.1490
      2 C          62.2737   84.3312   11.7746 C.3     1  UNL1        0.1409
      3 C          62.7459   83.5029   12.9326 C.ar    1  UNL1        0.0770
      4 C          62.6582   82.0327   13.2167 C.ar    1  UNL1        0.1148
      5 N          63.3105   81.7773   14.5431 N.ar    1  UNL1       -0.2226
      6 C          63.8013   83.0896   15.0787 C.ar    1  UNL1        0.1796
      7 N          63.4524   84.1561   14.0833 N.ar    1  UNL1       -0.2923
      8 C          63.6866   85.6377   14.0761 C.3     1  UNL1        0.2338
      9 S          63.2144   86.4660   12.9181 S.O2    1  UNL1        0.0628
     10 O          62.9565   87.6660   12.0558 O.2     1  UNL1       -0.1555
     11 O          63.8313   87.5360   13.7694 O.2     1  UNL1       -0.1555
     12 C          61.6729   88.0819   10.8165 C.3     1  UNL1        0.0240
     13 C          62.0357   86.6413   10.6094 C.3     1  UNL1        0.1019
     14 C          61.9264   86.0290    9.2445 C.ar    1  UNL1       -0.0061
     15 C          60.6341   86.1105    8.4873 C.ar    1  UNL1       -0.0021
     16 C          60.5248   85.4981    7.1223 C.ar    1  UNL1        0.0111
     17 C          61.7076   84.8043    6.5146 C.ar    1  UNL1        0.0577
     18 CL         61.5984   84.1920    5.1496 Cl      1  UNL1       -0.0822
     19 C          63.0000   84.7228    7.2718 C.ar    1  UNL1        0.0111
     20 C          63.1093   85.3351    8.6368 C.ar    1  UNL1       -0.0021
     21 C          64.3931   86.2909   15.2268 C.3     1  UNL1        0.0538
     22 C          63.6116   87.0742   16.2396 C.3     1  UNL1        0.0583
     23 C          63.4288   86.5370   16.7996 C.3     1  UNL1        0.0051
     24 C          63.4519   85.8371   17.0729 C.3     1  UNL1        0.1445
     25 O          62.6704   86.6203   18.0857 O.3     1  UNL1       -0.3536
     26 C          62.8301   87.8574   17.2525 C.3     1  UNL1        0.1445
@<TRIPOS>BOND
     1    13    12    1
     2    13    14    1
     3    14    15   ar
     4    15    16   ar
     5    16    17   ar
     6    17    18    1
     7    17    19   ar
     8    19    20   ar
     9    13     1    1
    10     1     2    1
    11     2     3    1
    12     3     4   ar
    13     4     5   ar
    14     5     6   ar
    15     6     7   ar
    16     7     8    1
    17     8    21    1
    18    21    22    1
    19    22    23    1
    20    22    24    1
    21    24    25    1
    22    25    26    1
    23     8     9    1
    24     9    10    2
    25     9    11    2
    26    20    14   ar
    27     9     1    1
    28     7     3   ar
    29    26    22    1
@<TRIPOS>MOLECULE
*****
 26 29 0 0 0
SMALL
GASTEIGER

@<TRIPOS>ATOM
      1 N          64.1269   89.7978   14.4887 N.3     1  UNL1       -0.1490
      2 C          64.3801   88.4025   14.9778 C.3     1  UNL1        0.1409
      3 C          64.0089   87.2286   14.1210 C.ar    1  UNL1        0.0770
      4 C          64.1369   85.7494   14.3350 C.ar    1  UNL1        0.1148
      5 N          63.5918   85.0566   13.1214 N.ar    1  UNL1       -0.2226
      6 C          63.1268   86.1076   12.1574 C.ar    1  UNL1        0.1796
      7 N          63.3846   87.4499   12.7752 N.ar    1  UNL1       -0.2923
      8 C          63.1315   88.8452   12.2861 C.3     1  UNL1        0.2338
      9 S          63.5027   90.0191   13.1429 S.O2    1  UNL1        0.0628
     10 O          63.6782   91.4415   13.5857 O.2     1  UNL1       -0.1555
     11 O          62.9394   90.7344   11.9509 O.2     1  UNL1       -0.1555
     12 C          63.4970   91.5484   16.3022 C.3     1  UNL1        0.0240
     13 C          64.4982   90.9718   15.3455 C.3     1  UNL1        0.1019
     14 C          65.8705   91.5691   15.2456 C.ar    1  UNL1       -0.0061
     15 C          66.3482   92.5303   16.2934 C.ar    1  UNL1       -0.0021
     16 C          67.7205   93.1275   16.1935 C.ar    1  UNL1        0.0111
     17 C          68.6151   92.7636   15.0458 C.ar    1  UNL1        0.0577
     18 CL         69.9875   93.3608   14.9458 Cl      1  UNL1       -0.0822
     19 C          68.1374   91.8024   13.9980 C.ar    1  UNL1        0.0111
     20 C          66.7651   91.2051   14.0979 C.ar    1  UNL1       -0.0021
     21 C          62.5072   89.0665   10.9403 C.3     1  UNL1        0.0538
     22 C          61.1346   88.5340   10.6535 C.3     1  UNL1        0.0583
     23 C          61.1767   88.2904    9.8956 C.3     1  UNL1        0.0051
     24 C          61.5585   88.1943    9.2553 C.3     1  UNL1        0.1445
     25 O          60.1859   87.6618    8.9685 O.3     1  UNL1       -0.3536
     26 C          59.7619   88.0015   10.3667 C.3     1  UNL1        0.1445
@<TRIPOS>BOND
     1    13    12    1
     2    13    14    1
     3    14    15   ar
     4    15    16   ar
     5    16    17   ar
     6    17    18    1
     7    17    19   ar
     8    19    20   ar
     9    13     1    1
    10     1     2    1
    11     2     3    1
    12     3     4   ar
    13     4     5   ar
    14     5     6   ar
    15     6     7   ar
    16     7     8    1
    17     8    21    1
    18    21    22    1
    19    22    23    1
    20    22    24    1
    21    24    25    1
    22    25    26    1
    23     8     9    1
    24     9    10    2
    25     9    11    2
    26    20    14   ar
    27     9     1    1
    28     7     3   ar
    29    26    22    1
