@<TRIPOS>MOLECULE
*****
 25 27 0 0 0
SMALL
GASTEIGER

@<TRIPOS>ATOM
      1 C          66.1945   92.9872   13.1309 C.ar    1  UNL1        0.1724
      2 C          65.4890   91.7799   13.6738 C.ar    1  UNL1        0.0400
      3 C          64.5461   91.0064   12.8005 C.ar    1  UNL1        0.0032
      4 C          63.8405   89.7992   13.3434 C.ar    1  UNL1       -0.0001
      5 C          62.8976   89.0257   12.4702 C.ar    1  UNL1       -0.0016
      6 C          62.6603   89.4594   11.0540 C.ar    1  UNL1        0.0086
      7 C          63.3658   90.6667   10.5111 C.ar    1  UNL1       -0.0015
      8 C          64.3087   91.4401   11.3844 C.ar    1  UNL1        0.0030
      9 C          65.0143   92.6474   10.8415 C.ar    1  UNL1        0.0400
     10 C          65.9572   93.4209   11.7148 C.ar    1  UNL1        0.1724
     11 C          61.7173   88.6859   10.1807 C.3     1  UNL1        0.1587
     12 O          62.8788   88.1679    9.3853 O.3     1  UNL1       -0.3754
     13 H          63.7041   88.5279    9.7462 H       1  UNL1        0.2112
     14 C          60.5559   89.2038   10.9761 C.ar    1  UNL1        0.1717
     15 C          60.0088   90.5998   10.9310 C.ar    1  UNL1        0.1378
     16 N          58.8523   90.6755   11.8834 N.ar    1  UNL1       -0.2029
     17 C          58.6846   89.3262   12.5170 C.ar    1  UNL1        0.2849
     18 O          59.7374   88.4167   11.9563 O.2     1  UNL1       -0.4329
     19 C          60.7744   87.9124    9.3075 C.3     1  UNL1        0.0356
     20 C          59.8771   88.6357    8.3474 C.3     1  UNL1        0.0032
     21 C          60.7287   86.4156    9.3943 C.3     1  UNL1        0.0032
     22 C          67.4856   93.2485   15.3704 C.3     1  UNL1        0.2526
     23 O          67.1375   93.7607   14.0042 O.3     1  UNL1       -0.4684
     24 O          66.6628   94.6282   11.1719 O.3     1  UNL1       -0.4684
     25 C          67.1282   94.6469    9.7460 C.3     1  UNL1        0.2526
@<TRIPOS>BOND
     1    22    23    1
     2    23     1    1
     3     1     2   ar
     4     2     3   ar
     5     3     4   ar
     6     4     5   ar
     7     5     6   ar
     8     6    11    1
     9    11    12    1
    10    11    14    1
    11    14    15   ar
    12    15    16   ar
    13    16    17   ar
    14    17    18   ar
    15    11    19    1
    16    19    20    1
    17    19    21    1
    18     6     7   ar
    19     7     8   ar
    20     8     9   ar
    21     9    10   ar
    22    10    24    1
    23    24    25    1
    24    10     1   ar
    25     8     3   ar
    26    18    14   ar
    27    12    13    1
@<TRIPOS>MOLECULE
*****
 25 27 0 0 0
SMALL
GASTEIGER

@<TRIPOS>ATOM
      1 C          63.9102   89.5604   13.1237 C.ar    1  UNL1        0.1724
      2 C          64.3606   88.6330   14.2131 C.ar    1  UNL1        0.0400
      3 C          63.9911   87.1801   14.1617 C.ar    1  UNL1        0.0032
      4 C          64.4415   86.2526   15.2511 C.ar    1  UNL1       -0.0001
      5 C          64.0721   84.7998   15.1996 C.ar    1  UNL1       -0.0016
      6 C          63.2522   84.2744   14.0587 C.ar    1  UNL1        0.0086
      7 C          62.8018   85.2018   12.9692 C.ar    1  UNL1       -0.0015
      8 C          63.1713   86.6547   13.0207 C.ar    1  UNL1        0.0030
      9 C          62.7209   87.5822   11.9312 C.ar    1  UNL1        0.0400
     10 C          63.0903   89.0350   11.9827 C.ar    1  UNL1        0.1724
     11 C          62.8828   82.8214   14.0072 C.3     1  UNL1        0.1587
     12 O          62.3670   82.9027   15.4133 O.3     1  UNL1       -0.3754
     13 H          62.4810   83.8061   15.7479 H       1  UNL1        0.2112
     14 C          63.3986   82.7401   12.6011 C.ar    1  UNL1        0.1717
     15 C          64.7952   83.0565   12.1545 C.ar    1  UNL1        0.1378
     16 N          64.8681   82.8401   10.6719 N.ar    1  UNL1       -0.2029
     17 C          63.5165   82.3900   10.2022 C.ar    1  UNL1        0.2849
     18 O          62.6083   82.3282   11.3944 O.2     1  UNL1       -0.4329
     19 C          62.5134   81.3686   13.9557 C.3     1  UNL1        0.0356
     20 C          61.0793   80.9537   14.1018 C.3     1  UNL1        0.0032
     21 C          63.5780   80.3305   13.7580 C.3     1  UNL1        0.0032
     22 C          65.5357   91.4436   13.8730 C.3     1  UNL1        0.2526
     23 O          64.2796   91.0134   13.1751 O.3     1  UNL1       -0.4684
     24 O          62.6399   89.9625   10.8932 O.3     1  UNL1       -0.4684
     25 C          61.3548   89.6976   10.1664 C.3     1  UNL1        0.2526
@<TRIPOS>BOND
     1    22    23    1
     2    23     1    1
     3     1     2   ar
     4     2     3   ar
     5     3     4   ar
     6     4     5   ar
     7     5     6   ar
     8     6    11    1
     9    11    12    1
    10    11    14    1
    11    14    15   ar
    12    15    16   ar
    13    16    17   ar
    14    17    18   ar
    15    11    19    1
    16    19    20    1
    17    19    21    1
    18     6     7   ar
    19     7     8   ar
    20     8     9   ar
    21     9    10   ar
    22    10    24    1
    23    24    25    1
    24    10     1   ar
    25     8     3   ar
    26    18    14   ar
    27    12    13    1
@<TRIPOS>MOLECULE
*****
 25 27 0 0 0
SMALL
GASTEIGER

@<TRIPOS>ATOM
      1 C          63.7990   90.1555   12.7917 C.ar    1  UNL1        0.1724
      2 C          63.1087   89.1575   11.9101 C.ar    1  UNL1        0.0400
      3 C          63.0294   87.7182   12.3254 C.ar    1  UNL1        0.0032
      4 C          62.3391   86.7202   11.4437 C.ar    1  UNL1       -0.0001
      5 C          62.2597   85.2811   11.8590 C.ar    1  UNL1       -0.0016
      6 C          62.8707   84.8400   13.1559 C.ar    1  UNL1        0.0086
      7 C          63.5610   85.8380   14.0376 C.ar    1  UNL1       -0.0015
      8 C          63.6403   87.2771   13.6223 C.ar    1  UNL1        0.0030
      9 C          64.3307   88.2752   14.5040 C.ar    1  UNL1        0.0400
     10 C          64.4100   89.7144   14.0887 C.ar    1  UNL1        0.1724
     11 C          62.7913   83.4007   13.5712 C.3     1  UNL1        0.1587
     12 O          62.2124   83.8137   14.8919 O.3     1  UNL1       -0.3754
     13 H          62.1359   84.7801   14.9234 H       1  UNL1        0.2112
     14 C          63.3703   82.9878   12.2506 C.ar    1  UNL1        0.1717
     15 C          64.6916   83.4256   11.6915 C.ar    1  UNL1        0.1378
     16 N          64.8675   82.7729   10.3523 N.ar    1  UNL1       -0.2029
     17 C          63.6549   81.9316   10.0839 C.ar    1  UNL1        0.2849
     18 O          62.7296   82.0644   11.2570 O.2     1  UNL1       -0.4329
     19 C          62.7120   81.9615   13.9864 C.3     1  UNL1        0.0356
     20 C          63.9673   81.1549   14.1400 C.3     1  UNL1        0.0032
     21 C          61.3773   81.3289   14.2481 C.3     1  UNL1        0.0032
     22 C          64.6255   91.9765   11.1331 C.3     1  UNL1        0.2526
     23 O          63.8784   91.5947   12.3765 O.3     1  UNL1       -0.4684
     24 O          65.1003   90.7125   14.9704 O.3     1  UNL1       -0.4684
     25 C          66.4080   91.3113   14.5445 C.3     1  UNL1        0.2526
@<TRIPOS>BOND
     1    22    23    1
     2    23     1    1
     3     1     2   ar
     4     2     3   ar
     5     3     4   ar
     6     4     5   ar
     7     5     6   ar
     8     6    11    1
     9    11    12    1
    10    11    14    1
    11    14    15   ar
    12    15    16   ar
    13    16    17   ar
    14    17    18   ar
    15    11    19    1
    16    19    20    1
    17    19    21    1
    18     6     7   ar
    19     7     8   ar
    20     8     9   ar
    21     9    10   ar
    22    10    24    1
    23    24    25    1
    24    10     1   ar
    25     8     3   ar
    26    18    14   ar
    27    12    13    1
@<TRIPOS>MOLECULE
*****
 25 27 0 0 0
SMALL
GASTEIGER

@<TRIPOS>ATOM
      1 C          61.3842   87.7122    9.7688 C.ar    1  UNL1        0.1724
      2 C          61.7414   89.1689    9.7863 C.ar    1  UNL1        0.0400
      3 C          62.6066   89.7159   10.8829 C.ar    1  UNL1        0.0032
      4 C          62.9637   91.1726   10.9005 C.ar    1  UNL1       -0.0001
      5 C          63.8288   91.7195   11.9970 C.ar    1  UNL1       -0.0016
      6 C          64.3368   90.8096   13.0760 C.ar    1  UNL1        0.0086
      7 C          63.9797   89.3529   13.0584 C.ar    1  UNL1       -0.0015
      8 C          63.1145   88.8060   11.9619 C.ar    1  UNL1        0.0030
      9 C          62.7573   87.3492   11.9442 C.ar    1  UNL1        0.0400
     10 C          61.8922   86.8024   10.8477 C.ar    1  UNL1        0.1724
     11 C          65.2020   91.3566   14.1726 C.3     1  UNL1        0.1587
     12 O          64.5954   90.3815   15.1376 O.3     1  UNL1       -0.3754
     13 H          63.9372   89.8379   14.6770 H       1  UNL1        0.2112
     14 C          65.8086   92.3316   13.2076 C.ar    1  UNL1        0.1717
     15 C          66.6965   91.9884   12.0484 C.ar    1  UNL1        0.1378
     16 N          67.0705   93.2658   11.3567 N.ar    1  UNL1       -0.2029
     17 C          66.4136   94.3986   12.0884 C.ar    1  UNL1        0.2849
     18 O          65.6337   93.8213   13.2323 O.2     1  UNL1       -0.4329
     19 C          66.0671   91.9035   15.2691 C.3     1  UNL1        0.0356
     20 C          65.4404   92.5792   16.4525 C.3     1  UNL1        0.0032
     21 C          67.5591   91.7748   15.1821 C.3     1  UNL1        0.0032
     22 C          59.5603   88.0671    7.9528 C.3     1  UNL1        0.2526
     23 O          60.5191   87.1653    8.6722 O.3     1  UNL1       -0.4684
     24 O          61.5350   85.3456   10.8301 O.3     1  UNL1       -0.4684
     25 C          62.4413   84.3432   11.4813 C.3     1  UNL1        0.2526
@<TRIPOS>BOND
     1    22    23    1
     2    23     1    1
     3     1     2   ar
     4     2     3   ar
     5     3     4   ar
     6     4     5   ar
     7     5     6   ar
     8     6    11    1
     9    11    12    1
    10    11    14    1
    11    14    15   ar
    12    15    16   ar
    13    16    17   ar
    14    17    18   ar
    15    11    19    1
    16    19    20    1
    17    19    21    1
    18     6     7   ar
    19     7     8   ar
    20     8     9   ar
    21     9    10   ar
    22    10    24    1
    23    24    25    1
    24    10     1   ar
    25     8     3   ar
    26    18    14   ar
    27    12    13    1
@<TRIPOS>MOLECULE
*****
 25 27 0 0 0
SMALL
GASTEIGER

@<TRIPOS>ATOM
      1 C          63.1980   81.8825   11.2571 C.ar    1  UNL1        0.1724
      2 C          63.2922   82.7559   10.0414 C.ar    1  UNL1        0.0400
      3 C          62.9304   84.2089   10.1318 C.ar    1  UNL1        0.0032
      4 C          63.0247   85.0823    8.9160 C.ar    1  UNL1       -0.0001
      5 C          62.6629   86.5352    9.0064 C.ar    1  UNL1       -0.0016
      6 C          62.2069   87.1146   10.3127 C.ar    1  UNL1        0.0086
      7 C          62.1126   86.2412   11.5285 C.ar    1  UNL1       -0.0015
      8 C          62.4744   84.7883   11.4380 C.ar    1  UNL1        0.0030
      9 C          62.3802   83.9148   12.6539 C.ar    1  UNL1        0.0400
     10 C          62.7420   82.4619   12.5634 C.ar    1  UNL1        0.1724
     11 C          61.8451   88.5676   10.4031 C.3     1  UNL1        0.1587
     12 O          62.9313   88.7751   11.4165 O.3     1  UNL1       -0.3754
     13 H          63.3861   87.9340   11.5798 H       1  UNL1        0.2112
     14 C          60.7588   88.3601    9.3898 C.ar    1  UNL1        0.1717
     15 C          59.7154   87.2830    9.4237 C.ar    1  UNL1        0.1378
     16 N          58.8369   87.4505    8.2194 N.ar    1  UNL1       -0.2029
     17 C          59.3374   88.6312    7.4411 C.ar    1  UNL1        0.2849
     18 O          60.5252   89.1933    8.1645 O.2     1  UNL1       -0.4329
     19 C          61.4833   90.0205   10.4935 C.3     1  UNL1        0.0356
     20 C          60.1126   90.4251   10.9492 C.3     1  UNL1        0.0032
     21 C          62.4921   91.0688   10.1281 C.3     1  UNL1        0.0032
     22 C          63.0079   79.5870   10.0552 C.3     1  UNL1        0.2526
     23 O          63.5598   80.4295   11.1667 O.3     1  UNL1       -0.4684
     24 O          62.6477   81.5884   13.7792 O.3     1  UNL1       -0.4684
     25 C          61.3351   80.9692   14.1579 C.3     1  UNL1        0.2526
@<TRIPOS>BOND
     1    22    23    1
     2    23     1    1
     3     1     2   ar
     4     2     3   ar
     5     3     4   ar
     6     4     5   ar
     7     5     6   ar
     8     6    11    1
     9    11    12    1
    10    11    14    1
    11    14    15   ar
    12    15    16   ar
    13    16    17   ar
    14    17    18   ar
    15    11    19    1
    16    19    20    1
    17    19    21    1
    18     6     7   ar
    19     7     8   ar
    20     8     9   ar
    21     9    10   ar
    22    10    24    1
    23    24    25    1
    24    10     1   ar
    25     8     3   ar
    26    18    14   ar
    27    12    13    1
@<TRIPOS>MOLECULE
*****
 25 27 0 0 0
SMALL
GASTEIGER

@<TRIPOS>ATOM
      1 C          62.4097   89.5729   10.8622 C.ar    1  UNL1        0.1724
      2 C          63.1913   89.0442   12.0282 C.ar    1  UNL1        0.0400
      3 C          63.0776   87.5991   12.4140 C.ar    1  UNL1        0.0032
      4 C          63.8592   87.0704   13.5800 C.ar    1  UNL1       -0.0001
      5 C          63.7455   85.6253   13.9657 C.ar    1  UNL1       -0.0016
      6 C          62.8503   84.7090   13.1855 C.ar    1  UNL1        0.0086
      7 C          62.0687   85.2377   12.0195 C.ar    1  UNL1       -0.0015
      8 C          62.1823   86.6827   11.6338 C.ar    1  UNL1        0.0030
      9 C          61.4007   87.2115   10.4678 C.ar    1  UNL1        0.0400
     10 C          61.5144   88.6565   10.0820 C.ar    1  UNL1        0.1724
     11 C          62.7366   83.2639   13.5713 C.3     1  UNL1        0.1587
     12 O          62.1603   83.6631   14.8974 O.3     1  UNL1       -0.3754
     13 H          62.1054   84.6303   14.9480 H       1  UNL1        0.2112
     14 C          63.3129   82.8646   12.2453 C.ar    1  UNL1        0.1717
     15 C          62.7416   81.8428   11.3074 C.ar    1  UNL1        0.1378
     16 N          63.6373   81.7637   10.1066 N.ar    1  UNL1       -0.2029
     17 C          64.7621   82.7366   10.3025 C.ar    1  UNL1        0.2849
     18 O          64.5616   83.4169   11.6242 O.2     1  UNL1       -0.4329
     19 C          62.6230   81.8188   13.9571 C.3     1  UNL1        0.0356
     20 C          61.2743   81.2156   14.2167 C.3     1  UNL1        0.0032
     21 C          63.8580   80.9768   14.0832 C.3     1  UNL1        0.0032
     22 C          63.8662   91.6861   10.4583 C.3     1  UNL1        0.2526
     23 O          62.5233   91.0180   10.4764 O.3     1  UNL1       -0.4684
     24 O          60.7328   89.1853    8.9160 O.3     1  UNL1       -0.4684
     25 C          59.8234   88.2732    8.1471 C.3     1  UNL1        0.2526
@<TRIPOS>BOND
     1    22    23    1
     2    23     1    1
     3     1     2   ar
     4     2     3   ar
     5     3     4   ar
     6     4     5   ar
     7     5     6   ar
     8     6    11    1
     9    11    12    1
    10    11    14    1
    11    14    15   ar
    12    15    16   ar
    13    16    17   ar
    14    17    18   ar
    15    11    19    1
    16    19    20    1
    17    19    21    1
    18     6     7   ar
    19     7     8   ar
    20     8     9   ar
    21     9    10   ar
    22    10    24    1
    23    24    25    1
    24    10     1   ar
    25     8     3   ar
    26    18    14   ar
    27    12    13    1
@<TRIPOS>MOLECULE
*****
 25 27 0 0 0
SMALL
GASTEIGER

@<TRIPOS>ATOM
      1 C          65.7389   92.7513   13.7504 C.ar    1  UNL1        0.1724
      2 C          65.3167   92.7500   12.3110 C.ar    1  UNL1        0.0400
      3 C          64.4108   91.6709   11.7961 C.ar    1  UNL1        0.0032
      4 C          63.9886   91.6697   10.3568 C.ar    1  UNL1       -0.0001
      5 C          63.0828   90.5907    9.8419 C.ar    1  UNL1       -0.0016
      6 C          62.5992   89.5130   10.7663 C.ar    1  UNL1        0.0086
      7 C          63.0213   89.5142   12.2056 C.ar    1  UNL1       -0.0015
      8 C          63.9272   90.5932   12.7205 C.ar    1  UNL1        0.0030
      9 C          64.3494   90.5945   14.1599 C.ar    1  UNL1        0.0400
     10 C          65.2553   91.6735   14.6748 C.ar    1  UNL1        0.1724
     11 C          61.6933   88.4339   10.2513 C.3     1  UNL1        0.1587
     12 O          62.8387   87.8356    9.4899 O.3     1  UNL1       -0.3754
     13 H          63.6379   88.3645    9.6397 H       1  UNL1        0.2112
     14 C          60.5478   89.0322   11.0128 C.ar    1  UNL1        0.1717
     15 C          59.9504   90.3891   10.7848 C.ar    1  UNL1        0.1378
     16 N          58.8319   90.5742   11.7672 N.ar    1  UNL1       -0.2029
     17 C          58.7381   89.3317   12.6023 C.ar    1  UNL1        0.2849
     18 O          59.7986   88.3787   12.1361 O.2     1  UNL1       -0.4329
     19 C          60.7874   87.3550    9.7364 C.3     1  UNL1        0.0356
     20 C          59.6716   87.6985    8.7947 C.3     1  UNL1        0.0032
     21 C          60.9973   85.9323   10.1633 C.3     1  UNL1        0.0032
     22 C          67.9392   93.4684   14.9314 C.3     1  UNL1        0.2526
     23 O          66.6448   93.8303   14.2653 O.3     1  UNL1       -0.4684
     24 O          65.6775   91.6748   16.1142 O.3     1  UNL1       -0.4684
     25 C          64.8496   92.3934   17.1380 C.3     1  UNL1        0.2526
@<TRIPOS>BOND
     1    22    23    1
     2    23     1    1
     3     1     2   ar
     4     2     3   ar
     5     3     4   ar
     6     4     5   ar
     7     5     6   ar
     8     6    11    1
     9    11    12    1
    10    11    14    1
    11    14    15   ar
    12    15    16   ar
    13    16    17   ar
    14    17    18   ar
    15    11    19    1
    16    19    20    1
    17    19    21    1
    18     6     7   ar
    19     7     8   ar
    20     8     9   ar
    21     9    10   ar
    22    10    24    1
    23    24    25    1
    24    10     1   ar
    25     8     3   ar
    26    18    14   ar
    27    12    13    1
@<TRIPOS>MOLECULE
*****
 25 27 0 0 0
SMALL
GASTEIGER

@<TRIPOS>ATOM
      1 C          60.8762   88.1643    9.0462 C.ar    1  UNL1        0.1724
      2 C          61.7961   87.0718    8.5879 C.ar    1  UNL1        0.0400
      3 C          62.1484   85.9486    9.5177 C.ar    1  UNL1        0.0032
      4 C          63.0683   84.8561    9.0595 C.ar    1  UNL1       -0.0001
      5 C          63.4205   83.7330    9.9892 C.ar    1  UNL1       -0.0016
      6 C          62.8528   83.7024   11.3773 C.ar    1  UNL1        0.0086
      7 C          61.9329   84.7949   11.8356 C.ar    1  UNL1       -0.0015
      8 C          61.5807   85.9180   10.9058 C.ar    1  UNL1        0.0030
      9 C          60.6607   87.0106   11.3641 C.ar    1  UNL1        0.0400
     10 C          60.3085   88.1337   10.4343 C.ar    1  UNL1        0.1724
     11 C          63.2051   82.5792   12.3071 C.3     1  UNL1        0.1587
     12 O          63.0438   81.5985   11.1836 O.3     1  UNL1       -0.3754
     13 H          62.7943   82.0719   10.3746 H       1  UNL1        0.2112
     14 C          63.3663   83.5598   13.4306 C.ar    1  UNL1        0.1717
     15 C          62.4272   83.7386   14.5865 C.ar    1  UNL1        0.1378
     16 N          62.9755   84.8232   15.4658 N.ar    1  UNL1       -0.2029
     17 C          64.2534   85.3148   14.8532 C.ar    1  UNL1        0.2849
     18 O          64.4950   84.5341   13.5954 O.2     1  UNL1       -0.4329
     19 C          63.5573   81.4561   13.2369 C.3     1  UNL1        0.0356
     20 C          62.5575   80.3738   13.5184 C.3     1  UNL1        0.0032
     21 C          64.9094   81.4152   13.8853 C.3     1  UNL1        0.0032
     22 C          59.4041   89.1231    7.1321 C.3     1  UNL1        0.2526
     23 O          60.5239   89.2875    8.1164 O.3     1  UNL1       -0.4684
     24 O          59.3885   89.2263   10.8926 O.3     1  UNL1       -0.4684
     25 C          59.9526   90.5369   11.3551 C.3     1  UNL1        0.2526
@<TRIPOS>BOND
     1    22    23    1
     2    23     1    1
     3     1     2   ar
     4     2     3   ar
     5     3     4   ar
     6     4     5   ar
     7     5     6   ar
     8     6    11    1
     9    11    12    1
    10    11    14    1
    11    14    15   ar
    12    15    16   ar
    13    16    17   ar
    14    17    18   ar
    15    11    19    1
    16    19    20    1
    17    19    21    1
    18     6     7   ar
    19     7     8   ar
    20     8     9   ar
    21     9    10   ar
    22    10    24    1
    23    24    25    1
    24    10     1   ar
    25     8     3   ar
    26    18    14   ar
    27    12    13    1
@<TRIPOS>MOLECULE
*****
 25 27 0 0 0
SMALL
GASTEIGER

@<TRIPOS>ATOM
      1 C          63.8358   82.7270   12.5994 C.ar    1  UNL1        0.1724
      2 C          63.8571   83.0964   11.1458 C.ar    1  UNL1        0.0400
      3 C          63.1132   84.3087   10.6690 C.ar    1  UNL1        0.0032
      4 C          63.1345   84.6782    9.2154 C.ar    1  UNL1       -0.0001
      5 C          62.3907   85.8904    8.7388 C.ar    1  UNL1       -0.0016
      6 C          61.6256   86.7331    9.7158 C.ar    1  UNL1        0.0086
      7 C          61.6044   86.3637   11.1694 C.ar    1  UNL1       -0.0015
      8 C          62.3482   85.1515   11.6460 C.ar    1  UNL1        0.0030
      9 C          62.3270   84.7819   13.0997 C.ar    1  UNL1        0.0400
     10 C          63.0708   83.5697   13.5763 C.ar    1  UNL1        0.1724
     11 C          60.8818   87.9454    9.2390 C.3     1  UNL1        0.1587
     12 O          60.1533   87.1033    8.2340 O.3     1  UNL1       -0.3754
     13 H          60.4498   86.1826    8.3080 H       1  UNL1        0.2112
     14 C          61.6102   88.7875   10.2441 C.ar    1  UNL1        0.1717
     15 C          62.7924   89.6678    9.9656 C.ar    1  UNL1        0.1378
     16 N          63.1972   90.3216   11.2536 N.ar    1  UNL1       -0.2029
     17 C          62.2651   89.8454   12.3281 C.ar    1  UNL1        0.2849
     18 O          61.2843   88.8973   11.7042 O.2     1  UNL1       -0.4329
     19 C          60.1380   89.1576    8.7624 C.3     1  UNL1        0.0356
     20 C          59.8061   90.2601    9.7239 C.3     1  UNL1        0.0032
     21 C          59.7260   89.2674    7.3242 C.3     1  UNL1        0.0032
     22 C          63.8361   80.3866   13.7276 C.3     1  UNL1        0.2526
     23 O          64.5797   81.5147   13.0761 O.3     1  UNL1       -0.4684
     24 O          63.0496   83.2002   15.0300 O.3     1  UNL1       -0.4684
     25 C          62.5871   84.1974   16.0506 C.3     1  UNL1        0.2526
@<TRIPOS>BOND
     1    22    23    1
     2    23     1    1
     3     1     2   ar
     4     2     3   ar
     5     3     4   ar
     6     4     5   ar
     7     5     6   ar
     8     6    11    1
     9    11    12    1
    10    11    14    1
    11    14    15   ar
    12    15    16   ar
    13    16    17   ar
    14    17    18   ar
    15    11    19    1
    16    19    20    1
    17    19    21    1
    18     6     7   ar
    19     7     8   ar
    20     8     9   ar
    21     9    10   ar
    22    10    24    1
    23    24    25    1
    24    10     1   ar
    25     8     3   ar
    26    18    14   ar
    27    12    13    1
