@<TRIPOS>MOLECULE
*****
 36 39 0 0 0
SMALL
GASTEIGER

@<TRIPOS>ATOM
      1 C          59.0263   90.3422    5.7686 C.ar    1  UNL1        0.0528
      2 C          58.1194   91.3098    5.0676 C.ar    1  UNL1        0.0161
      3 C          58.6712   92.2308    4.0201 C.ar    1  UNL1        0.0181
      4 C          60.1299   92.1843    3.6736 C.ar    1  UNL1        0.0757
      5 C          61.0368   91.2168    4.3746 C.ar    1  UNL1        0.1545
      6 F          62.4955   91.1703    4.0281 F       1  UNL1       -0.2028
      7 C          60.4850   90.2957    5.4221 C.ar    1  UNL1        0.0456
      8 N          60.6817   93.1054    2.6261 N.pl3   1  UNL1       -0.3057
      9 C          61.6003   92.5721    1.5670 C.3     1  UNL1        0.0922
     10 C          62.1520   93.4932    0.5196 C.3     1  UNL1        0.0374
     11 C          61.7851   94.9476    0.5313 C.3     1  UNL1        0.0610
     12 C          60.8666   95.4809    1.5904 C.3     1  UNL1        0.0374
     13 C          60.3148   94.5598    2.6378 C.3     1  UNL1        0.0922
     14 N          62.3369   95.8687   -0.5162 N.3     1  UNL1       -0.2706
     15 C          61.4965   96.2482   -1.6992 C.3     1  UNL1        0.0897
     16 C          63.7292   96.4102   -0.3807 C.3     1  UNL1        0.1042
     17 C          64.8900   95.6438   -0.9421 C.3     1  UNL1        0.1544
     18 O          65.5562   94.5817   -0.1186 O.3     1  UNL1       -0.3805
     19 H          65.9871   94.9901    0.6484 H       1  UNL1        0.2105
     20 N          58.4745   89.4212    6.8160 N.pl3   1  UNL1       -0.2825
     21 H          57.5008   89.3383    6.9351 H       1  UNL1        0.1551
     22 C          62.2017   86.2421   10.2803 C.3     1  UNL1        0.0342
     23 C          61.2699   87.0368    9.4142 C.ar    1  UNL1        0.0152
     24 C          60.3673   86.3356    8.4429 C.ar    1  UNL1        0.0990
     25 N          59.4355   87.1304    7.5769 N.ar    1  UNL1       -0.2123
     26 C          59.4063   88.6264    7.6821 C.ar    1  UNL1        0.2207
     27 N          60.3090   89.3276    8.6534 N.ar    1  UNL1       -0.2138
     28 C          61.2408   88.5328    9.5194 C.ar    1  UNL1        0.0847
     29 C          62.1435   89.2341   10.4908 C.ar    1  UNL1        0.0571
     30 C          62.7292   90.6043   10.3188 C.ar    1  UNL1        0.1231
     31 N          63.5666   90.9053   11.5263 N.ar    1  UNL1       -0.1677
     32 N          63.4985   89.7211   12.4446 N.ar    1  UNL1       -0.2513
     33 C          62.6190   88.6883   11.8045 C.ar    1  UNL1        0.0980
     34 C          64.1887   89.5924   13.7701 C.3     1  UNL1        0.1054
     35 C          64.8283   90.7929   14.4023 C.3     1  UNL1        0.0263
     36 C          64.2394   88.2632   14.4634 C.3     1  UNL1        0.0263
@<TRIPOS>BOND
     1    22    23    1
     2    23    24   ar
     3    24    25   ar
     4    25    26   ar
     5    26    20    1
     6    20     1    1
     7     1     2   ar
     8     2     3   ar
     9     3     4   ar
    10     4     8    1
    11     8     9    1
    12     9    10    1
    13    10    11    1
    14    11    14    1
    15    14    15    1
    16    14    16    1
    17    16    17    1
    18    17    18    1
    19    11    12    1
    20    12    13    1
    21     4     5   ar
    22     5     6    1
    23     5     7   ar
    24    26    27   ar
    25    27    28   ar
    26    28    29    1
    27    29    30   ar
    28    30    31   ar
    29    31    32   ar
    30    32    34    1
    31    34    35    1
    32    34    36    1
    33    32    33   ar
    34    28    23   ar
    35    33    29   ar
    36     7     1   ar
    37    13     8    1
    38    20    21    1
    39    18    19    1
@<TRIPOS>MOLECULE
*****
 36 39 0 0 0
SMALL
GASTEIGER

@<TRIPOS>ATOM
      1 C          63.9263   88.5089   14.9981 C.ar    1  UNL1        0.0528
      2 C          64.6816   89.6483   15.6157 C.ar    1  UNL1        0.0161
      3 C          65.0705   90.8312   14.7794 C.ar    1  UNL1        0.0181
      4 C          64.7040   90.8748   13.3255 C.ar    1  UNL1        0.0757
      5 C          63.9488   89.7355   12.7078 C.ar    1  UNL1        0.1545
      6 F          63.5823   89.7792   11.2539 F       1  UNL1       -0.2028
      7 C          63.5598   88.5525   13.5442 C.ar    1  UNL1        0.0456
      8 N          65.0930   92.0579   12.4892 N.pl3   1  UNL1       -0.3057
      9 C          64.5583   92.1989   11.0948 C.3     1  UNL1        0.0922
     10 C          64.9472   93.3819   10.2586 C.3     1  UNL1        0.0374
     11 C          65.8708   94.4238   10.8167 C.3     1  UNL1        0.0610
     12 C          66.4055   94.2827   12.2110 C.3     1  UNL1        0.0374
     13 C          66.0166   93.0997   13.0472 C.3     1  UNL1        0.0922
     14 N          66.2597   95.6068    9.9804 N.3     1  UNL1       -0.2706
     15 C          65.4295   96.8556   10.0156 C.3     1  UNL1        0.0897
     16 C          67.4788   95.5409    9.1090 C.3     1  UNL1        0.1042
     17 C          68.0966   94.2136    8.7826 C.3     1  UNL1        0.1544
     18 O          69.0474   93.5711    9.7486 O.3     1  UNL1       -0.3805
     19 H          69.8503   94.1108    9.8195 H       1  UNL1        0.2105
     20 N          63.5374   87.3260   15.8343 N.pl3   1  UNL1       -0.2825
     21 H          63.4675   87.4161   16.8122 H       1  UNL1        0.1551
     22 C          62.4079   82.0449   13.2201 C.3     1  UNL1        0.0342
     23 C          62.6903   83.3652   13.8736 C.ar    1  UNL1        0.0152
     24 C          62.6495   83.4862   15.3682 C.ar    1  UNL1        0.0990
     25 N          62.9319   84.8064   16.0217 N.ar    1  UNL1       -0.2123
     26 C          63.2550   86.0057   15.1808 C.ar    1  UNL1        0.2207
     27 N          63.2958   85.8847   13.6863 N.ar    1  UNL1       -0.2138
     28 C          63.0134   84.5645   13.0327 C.ar    1  UNL1        0.0847
     29 C          63.0542   84.4435   11.5381 C.ar    1  UNL1        0.0571
     30 C          63.9672   83.5516   10.7503 C.ar    1  UNL1        0.1231
     31 N          63.6664   83.7501    9.2942 N.ar    1  UNL1       -0.1677
     32 N          62.5673   84.7648    9.1821 N.ar    1  UNL1       -0.2513
     33 C          62.1890   85.1934   10.5689 C.ar    1  UNL1        0.0980
     34 C          61.9543   85.2634    7.9071 C.3     1  UNL1        0.1054
     35 C          60.7727   86.1863    7.9538 C.3     1  UNL1        0.0263
     36 C          62.5230   84.8392    6.5855 C.3     1  UNL1        0.0263
@<TRIPOS>BOND
     1    22    23    1
     2    23    24   ar
     3    24    25   ar
     4    25    26   ar
     5    26    20    1
     6    20     1    1
     7     1     2   ar
     8     2     3   ar
     9     3     4   ar
    10     4     8    1
    11     8     9    1
    12     9    10    1
    13    10    11    1
    14    11    14    1
    15    14    15    1
    16    14    16    1
    17    16    17    1
    18    17    18    1
    19    11    12    1
    20    12    13    1
    21     4     5   ar
    22     5     6    1
    23     5     7   ar
    24    26    27   ar
    25    27    28   ar
    26    28    29    1
    27    29    30   ar
    28    30    31   ar
    29    31    32   ar
    30    32    34    1
    31    34    35    1
    32    34    36    1
    33    32    33   ar
    34    28    23   ar
    35    33    29   ar
    36     7     1   ar
    37    13     8    1
    38    20    21    1
    39    18    19    1
@<TRIPOS>MOLECULE
*****
 36 39 0 0 0
SMALL
GASTEIGER

@<TRIPOS>ATOM
      1 C          59.0852   90.0960    5.9921 C.ar    1  UNL1        0.0528
      2 C          57.9471   90.8913    5.4243 C.ar    1  UNL1        0.0161
      3 C          58.2014   91.8948    4.3389 C.ar    1  UNL1        0.0181
      4 C          59.5937   92.1032    3.8212 C.ar    1  UNL1        0.0757
      5 C          60.7318   91.3080    4.3890 C.ar    1  UNL1        0.1545
      6 F          62.1241   91.5164    3.8713 F       1  UNL1       -0.2028
      7 C          60.4775   90.3044    5.4744 C.ar    1  UNL1        0.0456
      8 N          59.8479   93.1069    2.7358 N.pl3   1  UNL1       -0.3057
      9 C          60.1913   94.5235    3.0896 C.3     1  UNL1        0.0922
     10 C          60.4455   95.5270    2.0042 C.3     1  UNL1        0.0374
     11 C          60.3564   95.1140    0.5649 C.3     1  UNL1        0.0610
     12 C          60.0130   93.6973    0.2111 C.3     1  UNL1        0.0374
     13 C          59.7588   92.6938    1.2965 C.3     1  UNL1        0.0922
     14 N          60.6106   96.1176   -0.5205 N.3     1  UNL1       -0.2706
     15 C          59.4605   96.7032   -1.2849 C.3     1  UNL1        0.0897
     16 C          62.0150   96.5356   -0.8416 C.3     1  UNL1        0.1042
     17 C          63.1368   95.5466   -0.7260 C.3     1  UNL1        0.1544
     18 O          63.9501   95.4786    0.5325 O.3     1  UNL1       -0.3805
     19 H          64.4491   96.3034    0.6399 H       1  UNL1        0.2105
     20 N          58.8309   89.0924    7.0775 N.pl3   1  UNL1       -0.2825
     21 H          58.0224   88.5314    7.0496 H       1  UNL1        0.1551
     22 C          62.7415   88.4968   11.5889 C.3     1  UNL1        0.0342
     23 C          61.7639   88.6457   10.4610 C.ar    1  UNL1        0.0152
     24 C          61.0537   89.9502   10.2514 C.ar    1  UNL1        0.0990
     25 N          60.0760   90.0991    9.1235 N.ar    1  UNL1       -0.2123
     26 C          59.8086   88.9435    8.2053 C.ar    1  UNL1        0.2207
     27 N          60.5188   87.6391    8.4150 N.ar    1  UNL1       -0.2138
     28 C          61.4964   87.4902    9.5428 C.ar    1  UNL1        0.0847
     29 C          62.2067   86.1856    9.7524 C.ar    1  UNL1        0.0571
     30 C          62.9768   85.4243    8.7145 C.ar    1  UNL1        0.1231
     31 N          63.5175   84.1816    9.3574 N.ar    1  UNL1       -0.1677
     32 N          63.0815   84.1749   10.7927 N.ar    1  UNL1       -0.2513
     33 C          62.2714   85.4135   11.0368 C.ar    1  UNL1        0.0980
     34 C          63.3999   83.1156   11.8059 C.3     1  UNL1        0.1054
     35 C          62.8124   81.7426   11.6653 C.3     1  UNL1        0.0263
     36 C          64.3056   83.4293   12.9597 C.3     1  UNL1        0.0263
@<TRIPOS>BOND
     1    22    23    1
     2    23    24   ar
     3    24    25   ar
     4    25    26   ar
     5    26    20    1
     6    20     1    1
     7     1     2   ar
     8     2     3   ar
     9     3     4   ar
    10     4     8    1
    11     8     9    1
    12     9    10    1
    13    10    11    1
    14    11    14    1
    15    14    15    1
    16    14    16    1
    17    16    17    1
    18    17    18    1
    19    11    12    1
    20    12    13    1
    21     4     5   ar
    22     5     6    1
    23     5     7   ar
    24    26    27   ar
    25    27    28   ar
    26    28    29    1
    27    29    30   ar
    28    30    31   ar
    29    31    32   ar
    30    32    34    1
    31    34    35    1
    32    34    36    1
    33    32    33   ar
    34    28    23   ar
    35    33    29   ar
    36     7     1   ar
    37    13     8    1
    38    20    21    1
    39    18    19    1
@<TRIPOS>MOLECULE
*****
 36 39 0 0 0
SMALL
GASTEIGER

@<TRIPOS>ATOM
      1 C          63.6967   89.5655   15.3980 C.ar    1  UNL1        0.0528
      2 C          63.8148   89.3973   13.9121 C.ar    1  UNL1        0.0161
      3 C          63.7400   88.0281   13.3040 C.ar    1  UNL1        0.0181
      4 C          63.5472   86.8271   14.1818 C.ar    1  UNL1        0.0757
      5 C          63.4290   86.9953   15.6676 C.ar    1  UNL1        0.1545
      6 F          63.2362   85.7944   16.5454 F       1  UNL1       -0.2028
      7 C          63.5038   88.3646   16.2758 C.ar    1  UNL1        0.0456
      8 N          63.4724   85.4579   13.5737 N.pl3   1  UNL1       -0.3057
      9 C          62.5233   85.1900   12.4436 C.3     1  UNL1        0.0922
     10 C          62.4486   83.8208   11.8355 C.3     1  UNL1        0.0374
     11 C          63.3230   82.7196   12.3576 C.3     1  UNL1        0.0610
     12 C          64.2722   82.9875   13.4877 C.3     1  UNL1        0.0374
     13 C          64.3469   84.3567   14.0958 C.3     1  UNL1        0.0922
     14 N          63.2483   81.3504   11.7495 N.3     1  UNL1       -0.2706
     15 C          63.5564   81.1583   10.2941 C.3     1  UNL1        0.0897
     16 C          62.8654   80.1733   12.5968 C.3     1  UNL1        0.1042
     17 C          61.7272   80.2863   13.5671 C.3     1  UNL1        0.1544
     18 O          61.8916   81.0843   14.8265 O.3     1  UNL1       -0.3805
     19 H          62.5492   80.6564   15.3969 H       1  UNL1        0.2105
     20 N          63.7714   90.9347   16.0060 N.pl3   1  UNL1       -0.2825
     21 H          63.0336   91.2645   16.5683 H       1  UNL1        0.1551
     22 C          68.5665   94.4013   15.0114 C.3     1  UNL1        0.0342
     23 C          67.3677   93.5347   15.2600 C.ar    1  UNL1        0.0152
     24 C          67.1238   92.9660   16.6264 C.ar    1  UNL1        0.0990
     25 N          65.9251   92.0993   16.8751 N.ar    1  UNL1       -0.2123
     26 C          64.9702   91.8013   15.7574 C.ar    1  UNL1        0.2207
     27 N          65.2141   92.3700   14.3910 N.ar    1  UNL1       -0.2138
     28 C          66.4128   93.2367   14.1423 C.ar    1  UNL1        0.0847
     29 C          66.6567   93.8054   12.7758 C.ar    1  UNL1        0.0571
     30 C          66.3727   95.2133   12.3432 C.ar    1  UNL1        0.1231
     31 N          66.7679   95.3440   10.9021 N.ar    1  UNL1       -0.1677
     32 N          67.2961   94.0169   10.4441 N.ar    1  UNL1       -0.2513
     33 C          67.2274   93.0660   11.6021 C.ar    1  UNL1        0.0980
     34 C          67.8039   93.6969    9.0694 C.3     1  UNL1        0.1054
     35 C          67.5236   94.6314    7.9300 C.3     1  UNL1        0.0263
     36 C          68.5920   92.4424    8.8341 C.3     1  UNL1        0.0263
@<TRIPOS>BOND
     1    22    23    1
     2    23    24   ar
     3    24    25   ar
     4    25    26   ar
     5    26    20    1
     6    20     1    1
     7     1     2   ar
     8     2     3   ar
     9     3     4   ar
    10     4     8    1
    11     8     9    1
    12     9    10    1
    13    10    11    1
    14    11    14    1
    15    14    15    1
    16    14    16    1
    17    16    17    1
    18    17    18    1
    19    11    12    1
    20    12    13    1
    21     4     5   ar
    22     5     6    1
    23     5     7   ar
    24    26    27   ar
    25    27    28   ar
    26    28    29    1
    27    29    30   ar
    28    30    31   ar
    29    31    32   ar
    30    32    34    1
    31    34    35    1
    32    34    36    1
    33    32    33   ar
    34    28    23   ar
    35    33    29   ar
    36     7     1   ar
    37    13     8    1
    38    20    21    1
    39    18    19    1
@<TRIPOS>MOLECULE
*****
 36 39 0 0 0
SMALL
GASTEIGER

@<TRIPOS>ATOM
      1 C          63.6055   89.4453   15.6921 C.ar    1  UNL1        0.0528
      2 C          63.9659   89.1228   14.2721 C.ar    1  UNL1        0.0161
      3 C          63.8815   87.7085   13.7797 C.ar    1  UNL1        0.0181
      4 C          63.4366   86.6166   14.7070 C.ar    1  UNL1        0.0757
      5 C          63.0762   86.9391   16.1269 C.ar    1  UNL1        0.1545
      6 F          62.6313   85.8473   17.0543 F       1  UNL1       -0.2028
      7 C          63.1606   88.3535   16.6195 C.ar    1  UNL1        0.0456
      8 N          63.3522   85.2023   14.2145 N.pl3   1  UNL1       -0.3057
      9 C          62.8587   84.9197   12.8265 C.3     1  UNL1        0.0922
     10 C          62.7743   83.5054   12.3340 C.3     1  UNL1        0.0374
     11 C          63.1833   82.3737   13.2295 C.3     1  UNL1        0.0610
     12 C          63.6768   82.6563   14.6175 C.3     1  UNL1        0.0374
     13 C          63.7612   84.0706   15.1100 C.3     1  UNL1        0.0922
     14 N          63.0989   80.9593   12.7369 N.3     1  UNL1       -0.2706
     15 C          62.9387   79.8330   13.7145 C.3     1  UNL1        0.0897
     16 C          63.1747   80.6714   11.2668 C.3     1  UNL1        0.1042
     17 C          62.8171   79.3095   10.7498 C.3     1  UNL1        0.1544
     18 O          62.7496   79.0621    9.2719 O.3     1  UNL1       -0.3805
     19 H          62.0210   79.5768    8.8909 H       1  UNL1        0.2105
     20 N          63.6900   90.8596   16.1846 N.pl3   1  UNL1       -0.2825
     21 H          62.9563   91.2389   16.7204 H       1  UNL1        0.1551
     22 C          68.4991   94.2053   14.8892 C.3     1  UNL1        0.0342
     23 C          67.2968   93.3689   15.2130 C.ar    1  UNL1        0.0152
     24 C          67.0353   92.9479   16.6288 C.ar    1  UNL1        0.0990
     25 N          65.8330   92.1115   16.9526 N.ar    1  UNL1       -0.2123
     26 C          64.8922   91.6960   15.8607 C.ar    1  UNL1        0.2207
     27 N          65.1537   92.1170   14.4450 N.ar    1  UNL1       -0.2138
     28 C          66.3560   92.9534   14.1212 C.ar    1  UNL1        0.0847
     29 C          66.6175   93.3744   12.7053 C.ar    1  UNL1        0.0571
     30 C          67.3144   92.5585   11.6573 C.ar    1  UNL1        0.1231
     31 N          67.3556   93.3650   10.3933 N.ar    1  UNL1       -0.1677
     32 N          66.6841   94.6796   10.6601 N.ar    1  UNL1       -0.2513
     33 C          66.2279   94.6853   12.0891 C.ar    1  UNL1        0.0980
     34 C          66.5009   95.7928    9.6716 C.3     1  UNL1        0.1054
     35 C          65.4076   96.8003    9.8708 C.3     1  UNL1        0.0263
     36 C          67.4110   95.8985    8.4839 C.3     1  UNL1        0.0263
@<TRIPOS>BOND
     1    22    23    1
     2    23    24   ar
     3    24    25   ar
     4    25    26   ar
     5    26    20    1
     6    20     1    1
     7     1     2   ar
     8     2     3   ar
     9     3     4   ar
    10     4     8    1
    11     8     9    1
    12     9    10    1
    13    10    11    1
    14    11    14    1
    15    14    15    1
    16    14    16    1
    17    16    17    1
    18    17    18    1
    19    11    12    1
    20    12    13    1
    21     4     5   ar
    22     5     6    1
    23     5     7   ar
    24    26    27   ar
    25    27    28   ar
    26    28    29    1
    27    29    30   ar
    28    30    31   ar
    29    31    32   ar
    30    32    34    1
    31    34    35    1
    32    34    36    1
    33    32    33   ar
    34    28    23   ar
    35    33    29   ar
    36     7     1   ar
    37    13     8    1
    38    20    21    1
    39    18    19    1
@<TRIPOS>MOLECULE
*****
 36 39 0 0 0
SMALL
GASTEIGER

@<TRIPOS>ATOM
      1 C          61.6115   90.5118   10.5873 C.ar    1  UNL1        0.0528
      2 C          62.7300   91.2789    9.9466 C.ar    1  UNL1        0.0161
      3 C          63.8883   91.7489   10.7756 C.ar    1  UNL1        0.0181
      4 C          63.9281   91.4520   12.2454 C.ar    1  UNL1        0.0757
      5 C          62.8097   90.6849   12.8861 C.ar    1  UNL1        0.1545
      6 F          62.8495   90.3880   14.3559 F       1  UNL1       -0.2028
      7 C          61.6513   90.2148   12.0571 C.ar    1  UNL1        0.0456
      8 N          65.0865   91.9221   13.0744 N.pl3   1  UNL1       -0.3057
      9 C          65.6104   91.0629   14.1867 C.3     1  UNL1        0.0922
     10 C          66.7687   91.5330   15.0157 C.3     1  UNL1        0.0374
     11 C          67.4032   92.8624   14.7323 C.3     1  UNL1        0.0610
     12 C          66.8793   93.7216   13.6200 C.3     1  UNL1        0.0374
     13 C          65.7210   93.2514   12.7911 C.3     1  UNL1        0.0922
     14 N          68.5615   93.3325   15.5614 N.3     1  UNL1       -0.2706
     15 C          68.6022   94.7467   16.0597 C.3     1  UNL1        0.0897
     16 C          69.6793   92.3884   15.8920 C.3     1  UNL1        0.1042
     17 C          70.5844   91.8879   14.8056 C.3     1  UNL1        0.1544
     18 O          70.1542   91.9755   13.3713 O.3     1  UNL1       -0.3805
     19 H          69.3906   91.3950   13.2267 H       1  UNL1        0.2105
     20 N          60.4532   90.0417    9.7583 N.pl3   1  UNL1       -0.2825
     21 H          59.6551   90.6098    9.6606 H       1  UNL1        0.1551
     22 C          60.6836   84.6989    7.0379 C.3     1  UNL1        0.0342
     23 C          60.6260   86.0346    7.7180 C.ar    1  UNL1        0.0152
     24 C          59.7510   87.1204    7.1654 C.ar    1  UNL1        0.0990
     25 N          59.6934   88.4561    7.8455 N.ar    1  UNL1       -0.2123
     26 C          60.5108   88.7060    9.0782 C.ar    1  UNL1        0.2207
     27 N          61.3857   87.6201    9.6307 N.ar    1  UNL1       -0.2138
     28 C          61.4433   86.2844    8.9506 C.ar    1  UNL1        0.0847
     29 C          62.3183   85.1985    9.5032 C.ar    1  UNL1        0.0571
     30 C          63.3991   84.4725    8.7585 C.ar    1  UNL1        0.1231
     31 N          64.0149   83.4733    9.6926 N.ar    1  UNL1       -0.1677
     32 N          63.3146   83.5818   11.0147 N.ar    1  UNL1       -0.2513
     33 C          62.2661   84.6481   10.8976 C.ar    1  UNL1        0.0980
     34 C          63.6108   82.7672   12.2388 C.3     1  UNL1        0.1054
     35 C          63.1634   81.3375   12.3146 C.3     1  UNL1        0.0263
     36 C          64.3545   83.3822   13.3872 C.3     1  UNL1        0.0263
@<TRIPOS>BOND
     1    22    23    1
     2    23    24   ar
     3    24    25   ar
     4    25    26   ar
     5    26    20    1
     6    20     1    1
     7     1     2   ar
     8     2     3   ar
     9     3     4   ar
    10     4     8    1
    11     8     9    1
    12     9    10    1
    13    10    11    1
    14    11    14    1
    15    14    15    1
    16    14    16    1
    17    16    17    1
    18    17    18    1
    19    11    12    1
    20    12    13    1
    21     4     5   ar
    22     5     6    1
    23     5     7   ar
    24    26    27   ar
    25    27    28   ar
    26    28    29    1
    27    29    30   ar
    28    30    31   ar
    29    31    32   ar
    30    32    34    1
    31    34    35    1
    32    34    36    1
    33    32    33   ar
    34    28    23   ar
    35    33    29   ar
    36     7     1   ar
    37    13     8    1
    38    20    21    1
    39    18    19    1
@<TRIPOS>MOLECULE
*****
 36 39 0 0 0
SMALL
GASTEIGER

@<TRIPOS>ATOM
      1 C          59.7145   89.7559    6.8529 C.ar    1  UNL1        0.0528
      2 C          60.5126   90.1993    8.0431 C.ar    1  UNL1        0.0161
      3 C          61.0712   89.1817    8.9930 C.ar    1  UNL1        0.0181
      4 C          60.8318   87.7205    8.7527 C.ar    1  UNL1        0.0757
      5 C          60.0338   87.2770    7.5626 C.ar    1  UNL1        0.1545
      6 F          59.7943   85.8159    7.3224 F       1  UNL1       -0.2028
      7 C          59.4751   88.2947    6.6127 C.ar    1  UNL1        0.0456
      8 N          61.3905   86.7029    9.7027 N.pl3   1  UNL1       -0.3057
      9 C          61.0259   86.7545   11.1567 C.3     1  UNL1        0.0922
     10 C          61.5846   85.7369   12.1066 C.3     1  UNL1        0.0374
     11 C          62.5078   84.6676   11.6023 C.3     1  UNL1        0.0610
     12 C          62.8724   84.6160   10.1483 C.3     1  UNL1        0.0374
     13 C          62.3137   85.6336    9.1984 C.3     1  UNL1        0.0922
     14 N          63.0665   83.6499   12.5523 N.3     1  UNL1       -0.2706
     15 C          62.7396   82.1971   12.3725 C.3     1  UNL1        0.0897
     16 C          63.9521   84.0852   13.6820 C.3     1  UNL1        0.1042
     17 C          63.9572   83.3164   14.9700 C.3     1  UNL1        0.1544
     18 O          62.6620   82.9790   15.6472 O.3     1  UNL1       -0.3805
     19 H          62.2317   83.7950   15.9470 H       1  UNL1        0.2105
     20 N          59.1559   90.7735    5.9031 N.pl3   1  UNL1       -0.2825
     21 H          58.2222   91.0720    5.9947 H       1  UNL1        0.1551
     22 C          62.6115   93.0250    1.5454 C.3     1  UNL1        0.0342
     23 C          61.7476   92.4622    2.6348 C.ar    1  UNL1        0.0152
     24 C          62.3417   91.5514    3.6680 C.ar    1  UNL1        0.0990
     25 N          61.4778   90.9885    4.7574 N.ar    1  UNL1       -0.2123
     26 C          60.0198   91.3364    4.8137 C.ar    1  UNL1        0.2207
     27 N          59.4257   92.2472    3.7805 N.ar    1  UNL1       -0.2138
     28 C          60.2896   92.8101    2.6911 C.ar    1  UNL1        0.0847
     29 C          59.6955   93.7209    1.6579 C.ar    1  UNL1        0.0571
     30 C          59.8861   95.2066    1.5779 C.ar    1  UNL1        0.1231
     31 N          59.1148   95.7098    0.3939 N.ar    1  UNL1       -0.1677
     32 N          58.4475   94.5351   -0.2580 N.ar    1  UNL1       -0.2513
     33 C          58.8064   93.3059    0.5232 C.ar    1  UNL1        0.0980
     34 C          57.5747   94.5814   -1.4770 C.3     1  UNL1        0.1054
     35 C          56.2816   93.8216   -1.5028 C.3     1  UNL1        0.0263
     36 C          57.9949   95.3876   -2.6701 C.3     1  UNL1        0.0263
@<TRIPOS>BOND
     1    22    23    1
     2    23    24   ar
     3    24    25   ar
     4    25    26   ar
     5    26    20    1
     6    20     1    1
     7     1     2   ar
     8     2     3   ar
     9     3     4   ar
    10     4     8    1
    11     8     9    1
    12     9    10    1
    13    10    11    1
    14    11    14    1
    15    14    15    1
    16    14    16    1
    17    16    17    1
    18    17    18    1
    19    11    12    1
    20    12    13    1
    21     4     5   ar
    22     5     6    1
    23     5     7   ar
    24    26    27   ar
    25    27    28   ar
    26    28    29    1
    27    29    30   ar
    28    30    31   ar
    29    31    32   ar
    30    32    34    1
    31    34    35    1
    32    34    36    1
    33    32    33   ar
    34    28    23   ar
    35    33    29   ar
    36     7     1   ar
    37    13     8    1
    38    20    21    1
    39    18    19    1
@<TRIPOS>MOLECULE
*****
 36 39 0 0 0
SMALL
GASTEIGER

@<TRIPOS>ATOM
      1 C          59.5470   88.2466    7.6194 C.ar    1  UNL1        0.0528
      2 C          59.7555   86.7914    7.9179 C.ar    1  UNL1        0.0161
      3 C          60.5840   86.3792    9.0983 C.ar    1  UNL1        0.0181
      4 C          61.2041   87.4221    9.9803 C.ar    1  UNL1        0.0757
      5 C          60.9957   88.8772    9.6819 C.ar    1  UNL1        0.1545
      6 F          61.6158   89.9201   10.5638 F       1  UNL1       -0.2028
      7 C          60.1671   89.2895    8.5013 C.ar    1  UNL1        0.0456
      8 N          62.0327   87.0098   11.1608 N.pl3   1  UNL1       -0.3057
      9 C          62.7966   88.0407   11.9378 C.3     1  UNL1        0.0922
     10 C          63.6251   87.6284   13.1182 C.3     1  UNL1        0.0374
     11 C          63.6898   86.1851   13.5217 C.3     1  UNL1        0.0610
     12 C          62.9259   85.1542   12.7448 C.3     1  UNL1        0.0374
     13 C          62.0974   85.5665   11.5643 C.3     1  UNL1        0.0922
     14 N          64.5184   85.7728   14.7022 N.3     1  UNL1       -0.2706
     15 C          65.9001   85.2273   14.4948 C.3     1  UNL1        0.0897
     16 C          63.9651   85.9060   16.0901 C.3     1  UNL1        0.1042
     17 C          62.6304   85.3095   16.4259 C.3     1  UNL1        0.1544
     18 O          61.5993   86.1325   17.1396 O.3     1  UNL1       -0.3805
     19 H          61.9136   86.3406   18.0334 H       1  UNL1        0.2105
     20 N          58.7184   88.6589    6.4389 N.pl3   1  UNL1       -0.2825
     21 H          57.9943   88.0744    6.1175 H       1  UNL1        0.1551
     22 C          59.8171   93.8701    3.6755 C.3     1  UNL1        0.0342
     23 C          59.5424   92.5673    4.3664 C.ar    1  UNL1        0.0152
     24 C          58.2713   92.3825    5.1411 C.ar    1  UNL1        0.0990
     25 N          57.9967   91.0797    5.8319 N.ar    1  UNL1       -0.2123
     26 C          58.9931   89.9617    5.7481 C.ar    1  UNL1        0.2207
     27 N          60.2642   90.1464    4.9734 N.ar    1  UNL1       -0.2138
     28 C          60.5388   91.4492    4.2825 C.ar    1  UNL1        0.0847
     29 C          61.8100   91.6339    3.5078 C.ar    1  UNL1        0.0571
     30 C          63.0754   90.8495    3.6899 C.ar    1  UNL1        0.1231
     31 N          64.0863   91.3663    2.7096 N.ar    1  UNL1       -0.1677
     32 N          63.4456   92.4702    1.9216 N.ar    1  UNL1       -0.2513
     33 C          62.0388   92.6356    2.4149 C.ar    1  UNL1        0.0980
     34 C          64.0973   93.2685    0.8316 C.3     1  UNL1        0.1054
     35 C          63.2631   93.8619   -0.2646 C.3     1  UNL1        0.0263
     36 C          65.5833   93.4733    0.8380 C.3     1  UNL1        0.0263
@<TRIPOS>BOND
     1    22    23    1
     2    23    24   ar
     3    24    25   ar
     4    25    26   ar
     5    26    20    1
     6    20     1    1
     7     1     2   ar
     8     2     3   ar
     9     3     4   ar
    10     4     8    1
    11     8     9    1
    12     9    10    1
    13    10    11    1
    14    11    14    1
    15    14    15    1
    16    14    16    1
    17    16    17    1
    18    17    18    1
    19    11    12    1
    20    12    13    1
    21     4     5   ar
    22     5     6    1
    23     5     7   ar
    24    26    27   ar
    25    27    28   ar
    26    28    29    1
    27    29    30   ar
    28    30    31   ar
    29    31    32   ar
    30    32    34    1
    31    34    35    1
    32    34    36    1
    33    32    33   ar
    34    28    23   ar
    35    33    29   ar
    36     7     1   ar
    37    13     8    1
    38    20    21    1
    39    18    19    1
@<TRIPOS>MOLECULE
*****
 36 39 0 0 0
SMALL
GASTEIGER

@<TRIPOS>ATOM
      1 C          62.6379   88.2718   12.3516 C.ar    1  UNL1        0.0528
      2 C          61.7823   87.5894   11.3257 C.ar    1  UNL1        0.0161
      3 C          61.7973   86.0939   11.2113 C.ar    1  UNL1        0.0181
      4 C          62.6678   85.2806   12.1228 C.ar    1  UNL1        0.0757
      5 C          63.5233   85.9629   13.1487 C.ar    1  UNL1        0.1545
      6 F          64.3938   85.1496   14.0602 F       1  UNL1       -0.2028
      7 C          63.5084   87.4585   13.2631 C.ar    1  UNL1        0.0456
      8 N          62.6827   83.7850   12.0084 N.pl3   1  UNL1       -0.3057
      9 C          62.1549   82.9417   13.1309 C.3     1  UNL1        0.0922
     10 C          62.1698   81.4461   13.0164 C.3     1  UNL1        0.0374
     11 C          62.7126   80.7940   11.7794 C.3     1  UNL1        0.0610
     12 C          63.2405   81.6374   10.6569 C.3     1  UNL1        0.0374
     13 C          63.2255   83.1329   10.7714 C.3     1  UNL1        0.0922
     14 N          62.7275   79.2984   11.6650 N.3     1  UNL1       -0.2706
     15 C          62.6704   78.4510   12.9014 C.3     1  UNL1        0.0897
     16 C          62.7996   78.6503   10.3142 C.3     1  UNL1        0.1042
     17 C          63.5043   77.3365   10.1493 C.3     1  UNL1        0.1544
     18 O          62.7609   76.0532   10.3738 O.3     1  UNL1       -0.3805
     19 H          62.5076   75.9854   11.3077 H       1  UNL1        0.2105
     20 N          62.6230   89.7673   12.4660 N.pl3   1  UNL1       -0.2825
     21 H          61.8044   90.2694   12.2489 H       1  UNL1        0.1551
     22 C          67.5515   92.6894   14.2469 C.3     1  UNL1        0.0342
     23 C          66.3193   91.9588   13.8017 C.ar    1  UNL1        0.0152
     24 C          65.8096   90.7938   14.5971 C.ar    1  UNL1        0.0990
     25 N          64.5775   90.0632   14.1519 N.ar    1  UNL1       -0.2123
     26 C          63.8551   90.4978   12.9112 C.ar    1  UNL1        0.2207
     27 N          64.3648   91.6629   12.1158 N.ar    1  UNL1       -0.2138
     28 C          65.5969   92.3934   12.5610 C.ar    1  UNL1        0.0847
     29 C          66.1066   93.5586   11.7655 C.ar    1  UNL1        0.0571
     30 C          66.2436   94.9692   12.2568 C.ar    1  UNL1        0.1231
     31 N          66.7904   95.8000   11.1340 N.ar    1  UNL1       -0.1677
     32 N          66.9914   94.9028    9.9488 N.ar    1  UNL1       -0.2513
     33 C          66.5688   93.5176   10.3391 C.ar    1  UNL1        0.0980
     34 C          67.5219   95.3181    8.6085 C.3     1  UNL1        0.1054
     35 C          68.1840   94.3085    7.7185 C.3     1  UNL1        0.0263
     36 C          67.3902   96.7429    8.1584 C.3     1  UNL1        0.0263
@<TRIPOS>BOND
     1    22    23    1
     2    23    24   ar
     3    24    25   ar
     4    25    26   ar
     5    26    20    1
     6    20     1    1
     7     1     2   ar
     8     2     3   ar
     9     3     4   ar
    10     4     8    1
    11     8     9    1
    12     9    10    1
    13    10    11    1
    14    11    14    1
    15    14    15    1
    16    14    16    1
    17    16    17    1
    18    17    18    1
    19    11    12    1
    20    12    13    1
    21     4     5   ar
    22     5     6    1
    23     5     7   ar
    24    26    27   ar
    25    27    28   ar
    26    28    29    1
    27    29    30   ar
    28    30    31   ar
    29    31    32   ar
    30    32    34    1
    31    34    35    1
    32    34    36    1
    33    32    33   ar
    34    28    23   ar
    35    33    29   ar
    36     7     1   ar
    37    13     8    1
    38    20    21    1
    39    18    19    1
