@<TRIPOS>MOLECULE
*****
 29 31 0 0 0
SMALL
GASTEIGER

@<TRIPOS>ATOM
      1 C          63.6705   89.2099   15.7241 C.ar    1  UNL1        0.2297
      2 C          64.3903   88.4968   14.6181 C.ar    1  UNL1        0.0581
      3 C          64.4274   86.9974   14.5918 C.ar    1  UNL1        0.0063
      4 C          63.7447   86.2113   15.6715 C.ar    1  UNL1        0.0191
      5 C          63.0249   86.9244   16.7776 C.ar    1  UNL1        0.1020
      6 N          62.9879   88.4237   16.8039 N.ar    1  UNL1       -0.2098
      7 C          63.7818   84.7119   15.6452 C.2     1  UNL1       -0.0014
      8 C          63.4031   83.9741   14.3953 C.2     1  UNL1       -0.0069
      9 C          63.4402   82.4748   14.3691 C.3     1  UNL1        0.0939
     10 C          64.6781   81.7631   13.9095 C.3     1  UNL1        0.0262
     11 N          62.2394   81.6872   14.8024 N.am    1  UNL1       -0.3022
     12 C          61.3581   81.0381   13.7767 C.2     1  UNL1        0.2232
     13 C          60.1573   80.2505   14.2100 C.3     1  UNL1        0.0946
     14 O          61.6776   81.1767   12.3177 O.2     1  UNL1       -0.2751
     15 H          62.0297   81.5963   15.7600 H       1  UNL1        0.1497
     16 O          63.6335   90.7092   15.7505 O.3     1  UNL1       -0.4352
     17 C          66.3342   93.4618   10.6626 C.ar    1  UNL1        0.2582
     18 N          67.0691   93.7653   11.9345 N.ar    1  UNL1       -0.2053
     19 C          66.3552   93.0747   13.0586 C.ar    1  UNL1        0.0920
     20 C          66.6241   93.0166   14.5331 C.ar    1  UNL1        0.0229
     21 C          65.7169   92.2280   15.4304 C.ar    1  UNL1        0.0400
     22 C          64.5407   91.4977   14.8532 C.ar    1  UNL1        0.1582
     23 C          64.2717   91.5559   13.3786 C.ar    1  UNL1        0.0997
     24 CL         63.0956   90.8256   12.8014 Cl      1  UNL1       -0.0785
     25 C          65.1790   92.3444   12.4813 C.ar    1  UNL1        0.0650
     26 S          65.1660   92.5836   11.0006 S.2     1  UNL1       -0.0277
     27 O          66.7027   93.9507    9.2932 O.3     1  UNL1       -0.4557
     28 C          68.7084   92.3421    8.9198 C.3     1  UNL1        0.0512
     29 C          68.0761   93.6916    8.7488 C.3     1  UNL1        0.2078
@<TRIPOS>BOND
     1    28    29    1
     2    29    27    1
     3    27    17    1
     4    17    18   ar
     5    18    19   ar
     6    19    20   ar
     7    20    21   ar
     8    21    22   ar
     9    22    16    1
    10    16     1    1
    11     1     2   ar
    12     2     3   ar
    13     3     4   ar
    14     4     7    1
    15     7     8    2
    16     8     9    1
    17     9    10    1
    18     9    11    1
    19    11    12   am
    20    12    13    1
    21    12    14    2
    22     4     5   ar
    23     5     6   ar
    24    22    23   ar
    25    23    24    1
    26    23    25   ar
    27    25    26   ar
    28    26    17   ar
    29    25    19   ar
    30     6     1   ar
    31    11    15    1
@<TRIPOS>MOLECULE
*****
 29 31 0 0 0
SMALL
GASTEIGER

@<TRIPOS>ATOM
      1 C          63.9751   88.7154   14.3334 C.ar    1  UNL1        0.2297
      2 C          64.3049   87.6656   15.3527 C.ar    1  UNL1        0.0581
      3 C          64.1361   86.2137   15.0157 C.ar    1  UNL1        0.0063
      4 C          63.6375   85.8117   13.6593 C.ar    1  UNL1        0.0191
      5 C          63.3077   86.8615   12.6400 C.ar    1  UNL1        0.1020
      6 N          63.4765   88.3134   12.9770 N.ar    1  UNL1       -0.2098
      7 C          63.4686   84.3598   13.3222 C.2     1  UNL1       -0.0014
      8 C          63.2055   83.9445   11.9051 C.2     1  UNL1       -0.0069
      9 C          63.0367   82.4927   11.5681 C.3     1  UNL1        0.0939
     10 C          63.9501   81.8430   10.5712 C.3     1  UNL1        0.0262
     11 N          61.9544   81.6905   12.2278 N.am    1  UNL1       -0.3022
     12 C          62.2535   80.9083   13.4724 C.2     1  UNL1        0.2232
     13 C          61.1712   80.1061   14.1321 C.3     1  UNL1        0.0946
     14 O          63.6346   80.9283   14.0571 O.2     1  UNL1       -0.2751
     15 H          61.0479   81.6774   11.8441 H       1  UNL1        0.1497
     16 O          64.1440   90.1673   14.6704 O.3     1  UNL1       -0.4352
     17 C          66.5395   93.8688   10.0534 C.ar    1  UNL1        0.2582
     18 N          67.5223   93.6275   11.1606 N.ar    1  UNL1       -0.2053
     19 C          66.8615   92.7528   12.1845 C.ar    1  UNL1        0.0920
     20 C          67.3469   92.1902   13.4875 C.ar    1  UNL1        0.0229
     21 C          66.4410   91.3283   14.3162 C.ar    1  UNL1        0.0400
     22 C          65.0498   91.0291   13.8418 C.ar    1  UNL1        0.1582
     23 C          64.5644   91.5918   12.5388 C.ar    1  UNL1        0.0997
     24 CL         63.1732   91.2926   12.0644 Cl      1  UNL1       -0.0785
     25 C          65.4703   92.4536   11.7102 C.ar    1  UNL1        0.0650
     26 S          65.2713   93.1434   10.3931 S.2     1  UNL1       -0.0277
     27 O          66.7823   94.6913    8.8227 O.3     1  UNL1       -0.4557
     28 C          66.2080   96.8542   10.1426 C.3     1  UNL1        0.0512
     29 C          66.6993   96.1874    8.8920 C.3     1  UNL1        0.2078
@<TRIPOS>BOND
     1    28    29    1
     2    29    27    1
     3    27    17    1
     4    17    18   ar
     5    18    19   ar
     6    19    20   ar
     7    20    21   ar
     8    21    22   ar
     9    22    16    1
    10    16     1    1
    11     1     2   ar
    12     2     3   ar
    13     3     4   ar
    14     4     7    1
    15     7     8    2
    16     8     9    1
    17     9    10    1
    18     9    11    1
    19    11    12   am
    20    12    13    1
    21    12    14    2
    22     4     5   ar
    23     5     6   ar
    24    22    23   ar
    25    23    24    1
    26    23    25   ar
    27    25    26   ar
    28    26    17   ar
    29    25    19   ar
    30     6     1   ar
    31    11    15    1
@<TRIPOS>MOLECULE
*****
 29 31 0 0 0
SMALL
GASTEIGER

@<TRIPOS>ATOM
      1 C          63.9726   90.2884   15.0510 C.ar    1  UNL1        0.2297
      2 C          65.3435   90.8875   14.9426 C.ar    1  UNL1        0.0581
      3 C          65.7670   91.5668   13.6740 C.ar    1  UNL1        0.0063
      4 C          64.8196   91.6470   12.5139 C.ar    1  UNL1        0.0191
      5 C          63.4487   91.0479   12.6223 C.ar    1  UNL1        0.1020
      6 N          63.0252   90.3687   13.8908 N.ar    1  UNL1       -0.2098
      7 C          65.2431   92.3263   11.2453 C.2     1  UNL1       -0.0014
      8 C          66.6537   92.8119   11.0893 C.2     1  UNL1       -0.0069
      9 C          67.0771   93.4911    9.8208 C.3     1  UNL1        0.0939
     10 C          68.4109   93.1766    9.2107 C.3     1  UNL1        0.0262
     11 N          66.1667   94.4849    9.1622 N.am    1  UNL1       -0.3022
     12 C          66.0170   95.8617    9.7385 C.2     1  UNL1        0.2232
     13 C          65.1067   96.8554    9.0800 C.3     1  UNL1        0.0946
     14 O          66.7776   96.2447   10.9733 O.2     1  UNL1       -0.2751
     15 H          65.6676   94.2335    8.3517 H       1  UNL1        0.1497
     16 O          63.5491   89.6092   16.3196 O.3     1  UNL1       -0.4352
     17 C          63.6420   83.3963   14.8536 C.ar    1  UNL1        0.2582
     18 N          62.9449   83.6668   16.1539 N.ar    1  UNL1       -0.2053
     19 C          62.9804   85.1460   16.4001 C.ar    1  UNL1        0.0920
     20 C          62.4509   85.9899   17.5215 C.ar    1  UNL1        0.0229
     21 C          62.6405   87.4776   17.4946 C.ar    1  UNL1        0.0400
     22 C          63.3596   88.1215   16.3464 C.ar    1  UNL1        0.1582
     23 C          63.8891   87.2775   15.2250 C.ar    1  UNL1        0.0997
     24 CL         64.6082   87.9213   14.0768 Cl      1  UNL1       -0.0785
     25 C          63.6995   85.7898   15.2519 C.ar    1  UNL1        0.0650
     26 S          64.1084   84.7085   14.2961 S.2     1  UNL1       -0.0277
     27 O          63.8383   82.0502   14.2217 O.3     1  UNL1       -0.4557
     28 C          61.4026   81.1517   14.1217 C.3     1  UNL1        0.0512
     29 C          62.7195   81.4124   13.4526 C.3     1  UNL1        0.2078
@<TRIPOS>BOND
     1    28    29    1
     2    29    27    1
     3    27    17    1
     4    17    18   ar
     5    18    19   ar
     6    19    20   ar
     7    20    21   ar
     8    21    22   ar
     9    22    16    1
    10    16     1    1
    11     1     2   ar
    12     2     3   ar
    13     3     4   ar
    14     4     7    1
    15     7     8    2
    16     8     9    1
    17     9    10    1
    18     9    11    1
    19    11    12   am
    20    12    13    1
    21    12    14    2
    22     4     5   ar
    23     5     6   ar
    24    22    23   ar
    25    23    24    1
    26    23    25   ar
    27    25    26   ar
    28    26    17   ar
    29    25    19   ar
    30     6     1   ar
    31    11    15    1
@<TRIPOS>MOLECULE
*****
 29 31 0 0 0
SMALL
GASTEIGER

@<TRIPOS>ATOM
      1 C          62.9782   88.1451   12.8670 C.ar    1  UNL1        0.2297
      2 C          63.8834   87.6836   13.9704 C.ar    1  UNL1        0.0581
      3 C          64.1876   86.2233   14.1295 C.ar    1  UNL1        0.0063
      4 C          63.5867   85.2248   13.1852 C.ar    1  UNL1        0.0191
      5 C          62.6815   85.6864   12.0818 C.ar    1  UNL1        0.1020
      6 N          62.3772   87.1465   11.9226 N.ar    1  UNL1       -0.2098
      7 C          63.8910   83.7646   13.3444 C.2     1  UNL1       -0.0014
      8 C          62.8899   82.7376   12.9049 C.2     1  UNL1       -0.0069
      9 C          63.1942   81.2775   13.0640 C.3     1  UNL1        0.0939
     10 C          63.9594   80.7970   14.2614 C.3     1  UNL1        0.0262
     11 N          62.7333   80.2978   12.0258 N.am    1  UNL1       -0.3022
     12 C          63.1183   80.4911   10.5889 C.2     1  UNL1        0.2232
     13 C          62.6574   79.5114    9.5507 C.3     1  UNL1        0.0946
     14 O          63.9641   81.6639   10.1903 O.2     1  UNL1       -0.2751
     15 H          62.1781   79.5280   12.2874 H       1  UNL1        0.1497
     16 O          62.6739   89.6053   12.7078 O.3     1  UNL1       -0.4352
     17 C          66.7904   94.1440   10.9157 C.ar    1  UNL1        0.2582
     18 N          67.0417   93.6639   12.3144 N.ar    1  UNL1       -0.2053
     19 C          66.0258   92.6067   12.6312 C.ar    1  UNL1        0.0920
     20 C          65.7878   91.7795   13.8596 C.ar    1  UNL1        0.0229
     21 C          64.6704   90.7790   13.8852 C.ar    1  UNL1        0.0400
     22 C          63.7912   90.6057   12.6823 C.ar    1  UNL1        0.1582
     23 C          64.0293   91.4330   11.4539 C.ar    1  UNL1        0.0997
     24 CL         63.1500   91.2598   10.2510 Cl      1  UNL1       -0.0785
     25 C          65.1466   92.4335   11.4284 C.ar    1  UNL1        0.0650
     26 S          65.6191   93.3836   10.3681 S.2     1  UNL1       -0.0277
     27 O          67.5729   95.1992   10.1918 O.3     1  UNL1       -0.4557
     28 C          66.9475   96.6165    8.1061 C.3     1  UNL1        0.0512
     29 C          67.4497   95.3354    8.7031 C.3     1  UNL1        0.2078
@<TRIPOS>BOND
     1    28    29    1
     2    29    27    1
     3    27    17    1
     4    17    18   ar
     5    18    19   ar
     6    19    20   ar
     7    20    21   ar
     8    21    22   ar
     9    22    16    1
    10    16     1    1
    11     1     2   ar
    12     2     3   ar
    13     3     4   ar
    14     4     7    1
    15     7     8    2
    16     8     9    1
    17     9    10    1
    18     9    11    1
    19    11    12   am
    20    12    13    1
    21    12    14    2
    22     4     5   ar
    23     5     6   ar
    24    22    23   ar
    25    23    24    1
    26    23    25   ar
    27    25    26   ar
    28    26    17   ar
    29    25    19   ar
    30     6     1   ar
    31    11    15    1
@<TRIPOS>MOLECULE
*****
 29 31 0 0 0
SMALL
GASTEIGER

@<TRIPOS>ATOM
      1 C          62.4049   88.7505   10.4051 C.ar    1  UNL1        0.2297
      2 C          62.5879   90.0765    9.7282 C.ar    1  UNL1        0.0581
      3 C          63.2292   91.2136   10.4670 C.ar    1  UNL1        0.0063
      4 C          63.6876   91.0247   11.8827 C.ar    1  UNL1        0.0191
      5 C          63.5047   89.6987   12.5596 C.ar    1  UNL1        0.1020
      6 N          62.8634   88.5616   11.8209 N.ar    1  UNL1       -0.2098
      7 C          64.3290   92.1618   12.6215 C.2     1  UNL1       -0.0014
      8 C          65.5547   92.8223   12.0636 C.2     1  UNL1       -0.0069
      9 C          66.1959   93.9594   12.8024 C.3     1  UNL1        0.0939
     10 C          66.4469   95.2621   12.1023 C.3     1  UNL1        0.0262
     11 N          66.5863   93.7938   14.2412 N.am    1  UNL1       -0.3022
     12 C          67.7321   92.8982   14.6091 C.2     1  UNL1        0.2232
     13 C          68.1225   92.7325   16.0479 C.3     1  UNL1        0.0946
     14 O          68.4874   92.1683   13.5382 O.2     1  UNL1       -0.2751
     15 H          66.0906   94.2728   14.9440 H       1  UNL1        0.1497
     16 O          61.7636   87.6135    9.6664 O.3     1  UNL1       -0.4352
     17 C          63.3271   81.8741   11.9843 C.ar    1  UNL1        0.2582
     18 N          63.7909   82.0658   10.5708 N.ar    1  UNL1       -0.2053
     19 C          63.3745   83.4371   10.1281 C.ar    1  UNL1        0.0920
     20 C          63.5588   84.1733    8.8342 C.ar    1  UNL1        0.0229
     21 C          63.0218   85.5654    8.6803 C.ar    1  UNL1        0.0400
     22 C          62.3006   86.2214    9.8203 C.ar    1  UNL1        0.1582
     23 C          62.1163   85.4851   11.1142 C.ar    1  UNL1        0.0997
     24 CL         61.3950   86.1411   12.2541 Cl      1  UNL1       -0.0785
     25 C          62.6532   84.0930   11.2680 C.ar    1  UNL1        0.0650
     26 S          62.6239   83.1271   12.4152 S.2     1  UNL1       -0.0277
     27 O          63.5307   80.6454   12.8202 O.3     1  UNL1       -0.4557
     28 C          61.2235   80.7418   14.0107 C.3     1  UNL1        0.0512
     29 C          62.3496   79.9441   13.4229 C.3     1  UNL1        0.2078
@<TRIPOS>BOND
     1    28    29    1
     2    29    27    1
     3    27    17    1
     4    17    18   ar
     5    18    19   ar
     6    19    20   ar
     7    20    21   ar
     8    21    22   ar
     9    22    16    1
    10    16     1    1
    11     1     2   ar
    12     2     3   ar
    13     3     4   ar
    14     4     7    1
    15     7     8    2
    16     8     9    1
    17     9    10    1
    18     9    11    1
    19    11    12   am
    20    12    13    1
    21    12    14    2
    22     4     5   ar
    23     5     6   ar
    24    22    23   ar
    25    23    24    1
    26    23    25   ar
    27    25    26   ar
    28    26    17   ar
    29    25    19   ar
    30     6     1   ar
    31    11    15    1
@<TRIPOS>MOLECULE
*****
 29 31 0 0 0
SMALL
GASTEIGER

@<TRIPOS>ATOM
      1 C          62.0581   88.6162   11.4076 C.ar    1  UNL1        0.2297
      2 C          61.2461   87.8013   10.4449 C.ar    1  UNL1        0.0581
      3 C          61.3854   86.3079   10.4231 C.ar    1  UNL1        0.0063
      4 C          62.3365   85.6294   11.3638 C.ar    1  UNL1        0.0191
      5 C          63.1484   86.4443   12.3264 C.ar    1  UNL1        0.1020
      6 N          63.0093   87.9376   12.3484 N.ar    1  UNL1       -0.2098
      7 C          62.4757   84.1360   11.3419 C.2     1  UNL1       -0.0014
      8 C          63.4799   83.4633   12.2302 C.2     1  UNL1       -0.0069
      9 C          63.6191   81.9699   12.2082 C.3     1  UNL1        0.0939
     10 C          63.8779   81.2220   13.4825 C.3     1  UNL1        0.0262
     11 N          63.4995   81.2245   10.9121 N.am    1  UNL1       -0.3022
     12 C          62.9051   79.8474   10.8910 C.2     1  UNL1        0.2232
     13 C          62.7855   79.1019    9.5949 C.3     1  UNL1        0.0946
     14 O          62.4304   79.2158   12.1660 O.2     1  UNL1       -0.2751
     15 H          63.8111   81.6390   10.0753 H       1  UNL1        0.1497
     16 O          61.9189   90.1095   11.4295 O.3     1  UNL1       -0.4352
     17 C          66.8960   93.3066   13.8303 C.ar    1  UNL1        0.2582
     18 N          66.7592   93.4908   12.3479 N.ar    1  UNL1       -0.2053
     19 C          65.5675   92.7027   11.8909 C.ar    1  UNL1        0.0920
     20 C          64.9510   92.5095   10.5372 C.ar    1  UNL1        0.0229
     21 C          63.7348   91.6451   10.3834 C.ar    1  UNL1        0.0400
     22 C          63.1351   90.9739   11.5833 C.ar    1  UNL1        0.1582
     23 C          63.7517   91.1671   12.9371 C.ar    1  UNL1        0.0997
     24 CL         63.1520   90.4958   14.1370 Cl      1  UNL1       -0.0785
     25 C          64.9679   92.0314   13.0908 C.ar    1  UNL1        0.0650
     26 S          65.7889   92.4047   14.2894 S.2     1  UNL1       -0.0277
     27 O          67.9542   93.9172   14.7006 O.3     1  UNL1       -0.4557
     28 C          68.4496   92.0762   16.4656 C.3     1  UNL1        0.0512
     29 C          68.9329   93.0375   15.4205 C.3     1  UNL1        0.2078
@<TRIPOS>BOND
     1    28    29    1
     2    29    27    1
     3    27    17    1
     4    17    18   ar
     5    18    19   ar
     6    19    20   ar
     7    20    21   ar
     8    21    22   ar
     9    22    16    1
    10    16     1    1
    11     1     2   ar
    12     2     3   ar
    13     3     4   ar
    14     4     7    1
    15     7     8    2
    16     8     9    1
    17     9    10    1
    18     9    11    1
    19    11    12   am
    20    12    13    1
    21    12    14    2
    22     4     5   ar
    23     5     6   ar
    24    22    23   ar
    25    23    24    1
    26    23    25   ar
    27    25    26   ar
    28    26    17   ar
    29    25    19   ar
    30     6     1   ar
    31    11    15    1
@<TRIPOS>MOLECULE
*****
 29 31 0 0 0
SMALL
GASTEIGER

@<TRIPOS>ATOM
      1 C          64.8728   90.2833   13.9363 C.ar    1  UNL1        0.2297
      2 C          66.0530   91.0209   14.4958 C.ar    1  UNL1        0.0581
      3 C          66.4844   92.3204   13.8832 C.ar    1  UNL1        0.0063
      4 C          65.7357   92.8822   12.7111 C.ar    1  UNL1        0.0191
      5 C          64.5555   92.1445   12.1516 C.ar    1  UNL1        0.1020
      6 N          64.1241   90.8451   12.7642 N.ar    1  UNL1       -0.2098
      7 C          66.1672   94.1817   12.0985 C.2     1  UNL1       -0.0014
      8 C          65.4572   94.7128   10.8887 C.2     1  UNL1       -0.0069
      9 C          65.8887   96.0122   10.2761 C.3     1  UNL1        0.0939
     10 C          66.9241   96.8560   10.9588 C.3     1  UNL1        0.0262
     11 N          65.2847   96.4679    8.9809 N.am    1  UNL1       -0.3022
     12 C          66.0639   96.3431    7.7051 C.2     1  UNL1        0.2232
     13 C          65.4599   96.7988    6.4099 C.3     1  UNL1        0.0946
     14 O          67.4468   95.7626    7.7246 O.2     1  UNL1       -0.2751
     15 H          64.3771   96.8489    8.9681 H       1  UNL1        0.1497
     16 O          64.4413   88.9838   14.5489 O.3     1  UNL1       -0.4352
     17 C          62.7527   83.3047   12.1712 C.ar    1  UNL1        0.2582
     18 N          62.3081   84.4437   11.3022 N.ar    1  UNL1       -0.2053
     19 C          62.7533   85.7216   11.9492 C.ar    1  UNL1        0.0920
     20 C          62.5962   87.1581   11.5468 C.ar    1  UNL1        0.0229
     21 C          63.1589   88.2455   12.4134 C.ar    1  UNL1        0.0400
     22 C          63.8786   87.8965   13.6823 C.ar    1  UNL1        0.1582
     23 C          64.0357   86.4599   14.0847 C.ar    1  UNL1        0.0997
     24 CL         64.7554   86.1109   15.3536 Cl      1  UNL1       -0.0785
     25 C          63.4730   85.3726   13.2181 C.ar    1  UNL1        0.0650
     26 S          63.4727   83.8788   13.3553 S.2     1  UNL1       -0.0277
     27 O          62.5185   81.8476   11.9031 O.3     1  UNL1       -0.4557
     28 C          61.2102   80.9106   13.9428 C.3     1  UNL1        0.0512
     29 C          62.4125   80.8823   13.0463 C.3     1  UNL1        0.2078
@<TRIPOS>BOND
     1    28    29    1
     2    29    27    1
     3    27    17    1
     4    17    18   ar
     5    18    19   ar
     6    19    20   ar
     7    20    21   ar
     8    21    22   ar
     9    22    16    1
    10    16     1    1
    11     1     2   ar
    12     2     3   ar
    13     3     4   ar
    14     4     7    1
    15     7     8    2
    16     8     9    1
    17     9    10    1
    18     9    11    1
    19    11    12   am
    20    12    13    1
    21    12    14    2
    22     4     5   ar
    23     5     6   ar
    24    22    23   ar
    25    23    24    1
    26    23    25   ar
    27    25    26   ar
    28    26    17   ar
    29    25    19   ar
    30     6     1   ar
    31    11    15    1
@<TRIPOS>MOLECULE
*****
 29 31 0 0 0
SMALL
GASTEIGER

@<TRIPOS>ATOM
      1 C          59.1112   89.9636    6.0613 C.ar    1  UNL1        0.2297
      2 C          58.0209   90.8425    5.5241 C.ar    1  UNL1        0.0581
      3 C          58.3479   91.9273    4.5410 C.ar    1  UNL1        0.0063
      4 C          59.7652   92.1330    4.0951 C.ar    1  UNL1        0.0191
      5 C          60.8555   91.2541    4.6323 C.ar    1  UNL1        0.1020
      6 N          60.5286   90.1694    5.6153 N.ar    1  UNL1       -0.2098
      7 C          60.0921   93.2178    3.1119 C.2     1  UNL1       -0.0014
      8 C          61.1758   93.0077    2.0963 C.2     1  UNL1       -0.0069
      9 C          61.5027   94.0924    1.1132 C.3     1  UNL1        0.0939
     10 C          60.9166   94.0553   -0.2671 C.3     1  UNL1        0.0262
     11 N          62.4158   95.2143    1.5104 N.am    1  UNL1       -0.3022
     12 C          63.8915   94.9733    1.6312 C.2     1  UNL1        0.2232
     13 C          64.8045   96.0952    2.0283 C.3     1  UNL1        0.0946
     14 O          64.4539   93.6106    1.3549 O.2     1  UNL1       -0.2751
     15 H          62.0466   96.1088    1.6917 H       1  UNL1        0.1497
     16 O          58.7843   88.8789    7.0444 O.3     1  UNL1       -0.4352
     17 C          62.4747   86.0961   11.4483 C.ar    1  UNL1        0.2582
     18 N          62.3834   87.5817   11.6345 N.ar    1  UNL1       -0.2053
     19 C          61.4990   88.1307   10.5545 C.ar    1  UNL1        0.0920
     20 C          61.0494   89.5264   10.2382 C.ar    1  UNL1        0.0229
     21 C          60.1445   89.7758    9.0681 C.ar    1  UNL1        0.0400
     22 C          59.6892   88.6295    8.2144 C.ar    1  UNL1        0.1582
     23 C          60.1388   87.2339    8.5308 C.ar    1  UNL1        0.0997
     24 CL         59.6835   86.0876    7.6771 Cl      1  UNL1       -0.0785
     25 C          61.0436   86.9845    9.7008 C.ar    1  UNL1        0.0650
     26 S          61.6467   85.7270   10.2532 S.2     1  UNL1       -0.0277
     27 O          63.2567   85.1463   12.3064 O.3     1  UNL1       -0.4557
     28 C          64.3549   83.0535   11.2275 C.3     1  UNL1        0.0512
     29 C          63.2362   83.6763   12.0090 C.3     1  UNL1        0.2078
@<TRIPOS>BOND
     1    28    29    1
     2    29    27    1
     3    27    17    1
     4    17    18   ar
     5    18    19   ar
     6    19    20   ar
     7    20    21   ar
     8    21    22   ar
     9    22    16    1
    10    16     1    1
    11     1     2   ar
    12     2     3   ar
    13     3     4   ar
    14     4     7    1
    15     7     8    2
    16     8     9    1
    17     9    10    1
    18     9    11    1
    19    11    12   am
    20    12    13    1
    21    12    14    2
    22     4     5   ar
    23     5     6   ar
    24    22    23   ar
    25    23    24    1
    26    23    25   ar
    27    25    26   ar
    28    26    17   ar
    29    25    19   ar
    30     6     1   ar
    31    11    15    1
@<TRIPOS>MOLECULE
*****
 29 31 0 0 0
SMALL
GASTEIGER

@<TRIPOS>ATOM
      1 C          62.3055   88.8079   10.2708 C.ar    1  UNL1        0.2297
      2 C          62.8302   88.6949   11.6715 C.ar    1  UNL1        0.0581
      3 C          63.5094   89.8675   12.3148 C.ar    1  UNL1        0.0063
      4 C          63.6640   91.1530   11.5575 C.ar    1  UNL1        0.0191
      5 C          63.1393   91.2659   10.1568 C.ar    1  UNL1        0.1020
      6 N          62.4600   90.0935    9.5135 N.ar    1  UNL1       -0.2098
      7 C          64.3432   92.3255   12.2008 C.2     1  UNL1       -0.0014
      8 C          65.4840   93.0062   11.5043 C.2     1  UNL1       -0.0069
      9 C          66.1632   94.1787   12.1476 C.3     1  UNL1        0.0939
     10 C          66.7133   94.0568   13.5378 C.3     1  UNL1        0.0262
     11 N          66.2923   95.4732   11.4008 N.am    1  UNL1       -0.3022
     12 C          67.1885   95.5608   10.2011 C.2     1  UNL1        0.2232
     13 C          67.3176   96.8552    9.4543 C.3     1  UNL1        0.0946
     14 O          67.9555   94.3539    9.7482 O.2     1  UNL1       -0.2751
     15 H          65.7889   96.2653   11.6981 H       1  UNL1        0.1497
     16 O          61.6263   87.6354    9.6275 O.3     1  UNL1       -0.4352
     17 C          63.4179   81.9349   11.8750 C.ar    1  UNL1        0.2582
     18 N          63.8575   82.1548   10.4578 N.ar    1  UNL1       -0.2053
     19 C          63.3879   83.5144   10.0324 C.ar    1  UNL1        0.0920
     20 C          63.5305   84.2677    8.7432 C.ar    1  UNL1        0.0229
     21 C          62.9433   85.6414    8.6082 C.ar    1  UNL1        0.0400
     22 C          62.2135   86.2618    9.7625 C.ar    1  UNL1        0.1582
     23 C          62.0708   85.5085   11.0518 C.ar    1  UNL1        0.0997
     24 CL         61.3410   86.1289   12.2061 Cl      1  UNL1       -0.0785
     25 C          62.6580   84.1348   11.1867 C.ar    1  UNL1        0.0650
     26 S          62.6766   83.1586   12.3255 S.2     1  UNL1       -0.0277
     27 O          63.6746   80.7069   12.6973 O.3     1  UNL1       -0.4557
     28 C          61.3684   80.4501   13.8658 C.3     1  UNL1        0.0512
     29 C          62.8668   80.4507   13.9350 C.3     1  UNL1        0.2078
@<TRIPOS>BOND
     1    28    29    1
     2    29    27    1
     3    27    17    1
     4    17    18   ar
     5    18    19   ar
     6    19    20   ar
     7    20    21   ar
     8    21    22   ar
     9    22    16    1
    10    16     1    1
    11     1     2   ar
    12     2     3   ar
    13     3     4   ar
    14     4     7    1
    15     7     8    2
    16     8     9    1
    17     9    10    1
    18     9    11    1
    19    11    12   am
    20    12    13    1
    21    12    14    2
    22     4     5   ar
    23     5     6   ar
    24    22    23   ar
    25    23    24    1
    26    23    25   ar
    27    25    26   ar
    28    26    17   ar
    29    25    19   ar
    30     6     1   ar
    31    11    15    1
