@<TRIPOS>MOLECULE
*****
 35 38 0 0 0
SMALL
GASTEIGER

@<TRIPOS>ATOM
      1 N          63.2975   90.5437   11.9790 N.am    1  UNL1       -0.2438
      2 C          63.9051   90.4681   13.3483 C.3     1  UNL1        0.1009
      3 C          65.0936   91.3172   13.6893 C.3     1  UNL1        0.0661
      4 C          65.6746   92.2419   12.6610 C.3     1  UNL1        0.1587
      5 O          65.0670   92.3174   11.2916 O.3     1  UNL1       -0.4375
      6 C          63.8785   91.4683   10.9506 C.2     1  UNL1        0.4051
      7 O          63.2709   91.5439    9.5813 O.2     1  UNL1       -0.2262
      8 C          66.5950   92.5212   13.8121 C.ar    1  UNL1        0.0138
      9 C          67.2163   91.3845   14.5684 C.ar    1  UNL1       -0.0010
     10 C          68.1367   91.6638   15.7195 C.ar    1  UNL1       -0.0002
     11 C          68.4358   93.0797   16.1141 C.ar    1  UNL1       -0.0000
     12 C          67.8145   94.2163   15.3578 C.ar    1  UNL1       -0.0002
     13 C          66.8941   93.9371   14.2068 C.ar    1  UNL1       -0.0010
     14 C          60.8010   90.3406   11.2887 C.3     1  UNL1        0.0265
     15 C          62.1089   89.6946   11.6380 C.3     1  UNL1        0.1011
     16 C          62.2282   88.1993   11.6462 C.ar    1  UNL1       -0.0042
     17 C          61.3989   87.3755   10.7062 C.ar    1  UNL1       -0.0027
     18 C          61.5183   85.8803   10.7145 C.ar    1  UNL1       -0.0002
     19 C          62.4670   85.2089   11.6628 C.ar    1  UNL1        0.0014
     20 C          63.2962   86.0327   12.6028 C.ar    1  UNL1       -0.0002
     21 C          63.1769   87.5278   12.5945 C.ar    1  UNL1       -0.0027
     22 C          62.5863   83.7136   11.6710 C.ar    1  UNL1        0.0175
     23 C          63.1976   83.0036   10.4997 C.ar    1  UNL1        0.0064
     24 C          63.3169   81.5083   10.5079 C.ar    1  UNL1        0.0608
     25 C          62.8249   80.7232   11.6875 C.ar    1  UNL1        0.2610
     26 O          62.9442   79.2280   11.6958 O.2     1  UNL1       -0.2670
     27 N          62.2136   81.4333   12.8589 N.ar    1  UNL1       -0.2922
     28 C          61.7216   80.6482   14.0385 C.3     1  UNL1        0.1336
     29 C          62.0943   82.9285   12.8506 C.ar    1  UNL1        0.0783
     30 C          66.5753   93.2635   12.0324 C.3     1  UNL1        0.0586
     31 C          67.2912   92.9464   10.7531 C.3     1  UNL1        0.0831
     32 C          66.6196   94.1115   10.0884 C.3     1  UNL1        0.0153
     33 C          67.9628   91.7815   11.4177 C.3     1  UNL1        0.0153
     34 C          68.0071   92.6294    9.4737 C.1     1  UNL1        0.0712
     35 N          68.7230   92.3124    8.1941 N.1     1  UNL1       -0.1959
@<TRIPOS>BOND
     1    15    14    1
     2    15    16    1
     3    16    17   ar
     4    17    18   ar
     5    18    19   ar
     6    19    22    1
     7    22    23   ar
     8    23    24   ar
     9    24    25   ar
    10    25    26    2
    11    25    27   ar
    12    27    28    1
    13    27    29   ar
    14    19    20   ar
    15    20    21   ar
    16    15     1    1
    17     1     2    1
    18     2     3    1
    19     3     4    1
    20     4    30    1
    21    30    31    1
    22    31    32    1
    23    31    33    1
    24    31    34    1
    25    34    35    3
    26     4     8    1
    27     8     9   ar
    28     9    10   ar
    29    10    11   ar
    30    11    12   ar
    31    12    13   ar
    32     4     5    1
    33     5     6    1
    34     6     7    2
    35    21    16   ar
    36     6     1   am
    37    29    22   ar
    38    13     8   ar
@<TRIPOS>MOLECULE
*****
 35 38 0 0 0
SMALL
GASTEIGER

@<TRIPOS>ATOM
      1 N          63.1306   91.0013   11.7362 N.am    1  UNL1       -0.2438
      2 C          63.6770   91.4275   10.4059 C.3     1  UNL1        0.1009
      3 C          64.8677   92.3375   10.3408 C.3     1  UNL1        0.0661
      4 C          65.5120   92.8213   11.6061 C.3     1  UNL1        0.1587
      5 O          64.9655   92.3951   12.9365 O.3     1  UNL1       -0.4375
      6 C          63.7748   91.4852   13.0015 C.2     1  UNL1        0.4051
      7 O          63.2284   91.0590   14.3318 O.2     1  UNL1       -0.2262
      8 C          66.3878   93.4970   10.5929 C.ar    1  UNL1        0.0138
      9 C          66.2977   94.9811   10.3944 C.ar    1  UNL1       -0.0010
     10 C          67.1735   95.6568    9.3813 C.ar    1  UNL1       -0.0002
     11 C          68.1394   94.8483    8.5668 C.ar    1  UNL1       -0.0000
     12 C          68.2295   93.3643    8.7653 C.ar    1  UNL1       -0.0002
     13 C          67.3537   92.6886    9.7784 C.ar    1  UNL1       -0.0010
     14 C          60.5590   90.6689   11.8975 C.3     1  UNL1        0.0265
     15 C          61.9399   90.0914   11.8013 C.3     1  UNL1        0.1011
     16 C          62.1303   88.6038   11.7702 C.ar    1  UNL1       -0.0042
     17 C          63.1709   87.9625   12.6396 C.ar    1  UNL1       -0.0027
     18 C          63.3612   86.4749   12.6084 C.ar    1  UNL1       -0.0002
     19 C          62.5109   85.6287   11.7079 C.ar    1  UNL1        0.0014
     20 C          61.4703   86.2700   10.8385 C.ar    1  UNL1       -0.0002
     21 C          61.2800   87.7575   10.8696 C.ar    1  UNL1       -0.0027
     22 C          62.7013   84.1411   11.6768 C.ar    1  UNL1        0.0175
     23 C          63.3625   83.4942   10.4961 C.ar    1  UNL1        0.0064
     24 C          63.5529   82.0066   10.4650 C.ar    1  UNL1        0.0608
     25 C          63.0820   81.1660   11.6146 C.ar    1  UNL1        0.2610
     26 O          63.2723   79.6785   11.5835 O.2     1  UNL1       -0.2670
     27 N          62.4206   81.8130   12.7953 N.ar    1  UNL1       -0.2922
     28 C          61.9497   80.9725   13.9450 C.3     1  UNL1        0.1336
     29 C          62.2303   83.3006   12.8264 C.ar    1  UNL1        0.0783
     30 C          66.4604   93.5398   12.5195 C.3     1  UNL1        0.0586
     31 C          67.0769   92.8165   13.6799 C.3     1  UNL1        0.0831
     32 C          66.5296   93.8526   14.6165 C.3     1  UNL1        0.0153
     33 C          67.6242   91.7805   12.7434 C.3     1  UNL1        0.0153
     34 C          67.6934   92.0933   14.8405 C.1     1  UNL1        0.0712
     35 N          68.3100   91.3701   16.0011 N.1     1  UNL1       -0.1959
@<TRIPOS>BOND
     1    15    14    1
     2    15    16    1
     3    16    17   ar
     4    17    18   ar
     5    18    19   ar
     6    19    22    1
     7    22    23   ar
     8    23    24   ar
     9    24    25   ar
    10    25    26    2
    11    25    27   ar
    12    27    28    1
    13    27    29   ar
    14    19    20   ar
    15    20    21   ar
    16    15     1    1
    17     1     2    1
    18     2     3    1
    19     3     4    1
    20     4    30    1
    21    30    31    1
    22    31    32    1
    23    31    33    1
    24    31    34    1
    25    34    35    3
    26     4     8    1
    27     8     9   ar
    28     9    10   ar
    29    10    11   ar
    30    11    12   ar
    31    12    13   ar
    32     4     5    1
    33     5     6    1
    34     6     7    2
    35    21    16   ar
    36     6     1   am
    37    29    22   ar
    38    13     8   ar
