@<TRIPOS>MOLECULE
*****
 30 33 0 0 0
SMALL
GASTEIGER

@<TRIPOS>ATOM
      1 C          61.3165   88.0781   10.1495 C.3     1  UNL1        0.0999
      2 C          62.4939   88.8861   10.6088 C.3     1  UNL1        0.1138
      3 N          62.3140   89.9460   11.6548 N.pl3   1  UNL1       -0.2763
      4 C          60.9566   90.1980   12.2416 C.3     1  UNL1        0.1107
      5 C          59.7792   89.3901   11.7822 C.3     1  UNL1        0.0906
      6 N          59.9592   88.3301   10.7361 N.3     1  UNL1       -0.2922
      7 H          59.3438   88.5747    9.9603 H       1  UNL1        0.1236
      8 C          63.4914   90.7539   12.1142 C.ar    1  UNL1        0.2035
      9 N          64.2288   91.6250   11.1409 N.ar    1  UNL1       -0.2133
     10 C          65.4062   92.4329   11.6003 C.ar    1  UNL1        0.1065
     11 C          65.8462   92.3697   13.0329 C.ar    1  UNL1        0.0815
     12 C          65.1087   91.4985   14.0062 C.ar    1  UNL1        0.2646
     13 O          65.5487   91.4353   15.4388 O.2     1  UNL1       -0.2668
     14 N          63.9313   90.6906   13.5469 N.ar    1  UNL1       -0.2667
     15 C          63.1939   89.8194   14.5201 C.3     1  UNL1        0.1363
     16 C          66.1436   93.3041   10.6270 C.ar    1  UNL1        0.1024
     17 C          67.3235   92.7597    9.8777 C.ar    1  UNL1        0.0414
     18 C          68.0609   93.6309    8.9045 C.ar    1  UNL1        0.1023
     19 N          67.6184   95.0465    8.6804 N.ar    1  UNL1       -0.2224
     20 C          66.4385   95.5909    9.4296 C.ar    1  UNL1        0.1989
     21 N          65.7011   94.7197   10.4029 N.ar    1  UNL1       -0.2224
     22 C          60.4386   86.8056    8.0614 C.ar    1  UNL1        0.1382
     23 C          60.6186   85.7457    7.0154 C.ar    1  UNL1        0.0662
     24 C          61.8564   84.8984    7.0114 C.ar    1  UNL1        0.1431
     25 F          62.0363   83.8384    5.9653 F       1  UNL1       -0.2041
     26 C          62.9142   85.1110    8.0534 C.ar    1  UNL1        0.0296
     27 C          62.7342   86.1709    9.0994 C.ar    1  UNL1        0.0024
     28 C          61.4964   87.0182    9.1034 C.ar    1  UNL1        0.0278
     29 C          59.1234   88.8716    7.1945 C.3     1  UNL1        0.2525
     30 O          59.2008   87.6528    8.0654 O.3     1  UNL1       -0.4716
@<TRIPOS>BOND
     1    29    30    1
     2    30    22    1
     3    22    23   ar
     4    23    24   ar
     5    24    25    1
     6    24    26   ar
     7    26    27   ar
     8    27    28   ar
     9    28     1    1
    10     1     2    1
    11     2     3    1
    12     3     8    1
    13     8     9   ar
    14     9    10   ar
    15    10    16    1
    16    16    17   ar
    17    17    18   ar
    18    18    19   ar
    19    19    20   ar
    20    20    21   ar
    21    10    11   ar
    22    11    12   ar
    23    12    13    2
    24    12    14   ar
    25    14    15    1
    26     3     4    1
    27     4     5    1
    28     5     6    1
    29    28    22   ar
    30     6     1    1
    31    14     8   ar
    32    21    16   ar
    33     6     7    1
@<TRIPOS>MOLECULE
*****
 30 33 0 0 0
SMALL
GASTEIGER

@<TRIPOS>ATOM
      1 C          62.1212   87.2129   11.3365 C.3     1  UNL1        0.0999
      2 C          63.1259   88.2399   11.7677 C.3     1  UNL1        0.1138
      3 N          62.6859   89.6445   12.0567 N.pl3   1  UNL1       -0.2763
      4 C          61.2412   90.0221   11.9147 C.3     1  UNL1        0.1107
      5 C          60.2365   88.9951   11.4835 C.3     1  UNL1        0.0906
      6 N          60.6765   87.5905   11.1945 N.3     1  UNL1       -0.2922
      7 H          60.4140   87.3925   10.2289 H       1  UNL1        0.1236
      8 C          63.6906   90.6715   12.4879 C.ar    1  UNL1        0.2035
      9 N          64.3948   91.5087   11.4618 N.ar    1  UNL1       -0.2133
     10 C          65.3995   92.5357   11.8929 C.ar    1  UNL1        0.1065
     11 C          65.7000   92.7254   13.3502 C.ar    1  UNL1        0.0815
     12 C          64.9958   91.8881   14.3764 C.ar    1  UNL1        0.2646
     13 O          65.2963   92.0778   15.8336 O.2     1  UNL1       -0.2668
     14 N          63.9911   90.8611   13.9452 N.ar    1  UNL1       -0.2667
     15 C          63.2869   90.0238   14.9714 C.3     1  UNL1        0.1363
     16 C          66.1038   93.3730   10.8667 C.ar    1  UNL1        0.1024
     17 C          67.2333   92.7904   10.0701 C.ar    1  UNL1        0.0414
     18 C          67.9374   93.6277    9.0439 C.ar    1  UNL1        0.1023
     19 N          67.5121   95.0477    8.8144 N.ar    1  UNL1       -0.2224
     20 C          66.3825   95.6303    9.6110 C.ar    1  UNL1        0.1989
     21 N          65.6784   94.7930   10.6371 N.ar    1  UNL1       -0.2224
     22 C          62.7264   84.8280   12.1707 C.ar    1  UNL1        0.1382
     23 C          63.1664   83.4234   11.8816 C.ar    1  UNL1        0.0662
     24 C          63.4414   82.9993   10.4693 C.ar    1  UNL1        0.1431
     25 F          63.8815   81.5947   10.1802 F       1  UNL1       -0.2041
     26 C          63.2763   83.9797    9.3461 C.ar    1  UNL1        0.0296
     27 C          62.8363   85.3842    9.6352 C.ar    1  UNL1        0.0024
     28 C          62.5613   85.8083   11.0475 C.ar    1  UNL1        0.0278
     29 C          63.3690   84.8199   14.6880 C.3     1  UNL1        0.2525
     30 O          62.4514   85.2521   13.5829 O.3     1  UNL1       -0.4716
@<TRIPOS>BOND
     1    29    30    1
     2    30    22    1
     3    22    23   ar
     4    23    24   ar
     5    24    25    1
     6    24    26   ar
     7    26    27   ar
     8    27    28   ar
     9    28     1    1
    10     1     2    1
    11     2     3    1
    12     3     8    1
    13     8     9   ar
    14     9    10   ar
    15    10    16    1
    16    16    17   ar
    17    17    18   ar
    18    18    19   ar
    19    19    20   ar
    20    20    21   ar
    21    10    11   ar
    22    11    12   ar
    23    12    13    2
    24    12    14   ar
    25    14    15    1
    26     3     4    1
    27     4     5    1
    28     5     6    1
    29    28    22   ar
    30     6     1    1
    31    14     8   ar
    32    21    16   ar
    33     6     7    1
@<TRIPOS>MOLECULE
*****
 30 33 0 0 0
SMALL
GASTEIGER

@<TRIPOS>ATOM
      1 C          62.1131   87.2936   11.4991 C.3     1  UNL1        0.0999
      2 C          63.1332   88.3096   11.9198 C.3     1  UNL1        0.1138
      3 N          62.7421   89.7507   12.0620 N.pl3   1  UNL1       -0.2763
      4 C          61.3307   90.1758   11.7835 C.3     1  UNL1        0.1107
      5 C          60.3106   89.1597   11.3628 C.3     1  UNL1        0.0906
      6 N          60.7018   87.7186   11.2206 N.3     1  UNL1       -0.2922
      7 H          60.4987   87.4520   10.2572 H       1  UNL1        0.1236
      8 C          63.7622   90.7668   12.4828 C.ar    1  UNL1        0.2035
      9 N          64.4714   91.5900   11.4488 N.ar    1  UNL1       -0.2133
     10 C          65.4916   92.6061   11.8696 C.ar    1  UNL1        0.1065
     11 C          65.8024   92.7989   13.3242 C.ar    1  UNL1        0.0815
     12 C          65.0931   91.9756   14.3583 C.ar    1  UNL1        0.2646
     13 O          65.4039   92.1684   15.8130 O.2     1  UNL1       -0.2668
     14 N          64.0730   90.9595   13.9376 N.ar    1  UNL1       -0.2667
     15 C          63.3637   90.1363   14.9715 C.3     1  UNL1        0.1363
     16 C          66.2009   93.4293   10.8355 C.ar    1  UNL1        0.1024
     17 C          65.8203   94.8656   10.6299 C.ar    1  UNL1        0.0414
     18 C          66.5296   95.6888    9.5959 C.ar    1  UNL1        0.1023
     19 N          67.6194   95.0757    8.7675 N.ar    1  UNL1       -0.2224
     20 C          68.0000   93.6395    8.9731 C.ar    1  UNL1        0.1989
     21 N          67.2907   92.8163   10.0071 N.ar    1  UNL1       -0.2224
     22 C          62.6900   85.2568    9.9928 C.ar    1  UNL1        0.1382
     23 C          63.0813   83.8157    9.8507 C.ar    1  UNL1        0.0662
     24 C          63.2868   82.9703   11.0726 C.ar    1  UNL1        0.1431
     25 F          63.6781   81.5292   10.9304 F       1  UNL1       -0.2041
     26 C          63.1011   83.5660   12.4366 C.ar    1  UNL1        0.0296
     27 C          62.7099   85.0070   12.5788 C.ar    1  UNL1        0.0024
     28 C          62.5044   85.8524   11.3569 C.ar    1  UNL1        0.0278
     29 C          61.1759   86.0572    8.0392 C.3     1  UNL1        0.2525
     30 O          62.4845   86.1022    8.7709 O.3     1  UNL1       -0.4716
@<TRIPOS>BOND
     1    29    30    1
     2    30    22    1
     3    22    23   ar
     4    23    24   ar
     5    24    25    1
     6    24    26   ar
     7    26    27   ar
     8    27    28   ar
     9    28     1    1
    10     1     2    1
    11     2     3    1
    12     3     8    1
    13     8     9   ar
    14     9    10   ar
    15    10    16    1
    16    16    17   ar
    17    17    18   ar
    18    18    19   ar
    19    19    20   ar
    20    20    21   ar
    21    10    11   ar
    22    11    12   ar
    23    12    13    2
    24    12    14   ar
    25    14    15    1
    26     3     4    1
    27     4     5    1
    28     5     6    1
    29    28    22   ar
    30     6     1    1
    31    14     8   ar
    32    21    16   ar
    33     6     7    1
@<TRIPOS>MOLECULE
*****
 30 33 0 0 0
SMALL
GASTEIGER

@<TRIPOS>ATOM
      1 C          64.6559   91.7685   12.7878 C.3     1  UNL1        0.0999
      2 C          63.9878   90.6391   12.0610 C.3     1  UNL1        0.1138
      3 N          63.2920   89.5577   12.8332 N.pl3   1  UNL1       -0.2763
      4 C          63.2643   89.6056   14.3323 C.3     1  UNL1        0.1107
      5 C          63.9325   90.7349   15.0590 C.3     1  UNL1        0.0906
      6 N          64.6283   91.8164   14.2867 N.3     1  UNL1       -0.2922
      7 H          65.5992   91.8232   14.5990 H       1  UNL1        0.1236
      8 C          62.6239   88.4283   12.1065 C.ar    1  UNL1        0.2035
      9 N          63.0669   87.0156   12.3467 N.ar    1  UNL1       -0.2133
     10 C          62.3987   85.8862   11.6200 C.ar    1  UNL1        0.1065
     11 C          61.2876   86.1696   10.6530 C.ar    1  UNL1        0.0815
     12 C          60.8446   87.5825   10.4127 C.ar    1  UNL1        0.2646
     13 O          59.7335   87.8659    9.4457 O.2     1  UNL1       -0.2668
     14 N          61.5127   88.7118   11.1395 N.ar    1  UNL1       -0.2667
     15 C          61.0697   90.1246   10.8992 C.3     1  UNL1        0.1363
     16 C          62.8418   84.4733   11.8602 C.ar    1  UNL1        0.1024
     17 C          63.4626   83.6824   10.7471 C.ar    1  UNL1        0.0414
     18 C          63.9055   82.2697   10.9874 C.ar    1  UNL1        0.1023
     19 N          63.7277   81.6478   12.3408 N.ar    1  UNL1       -0.2224
     20 C          63.1069   82.4387   13.4539 C.ar    1  UNL1        0.1989
     21 N          62.6640   83.8515   13.2136 N.ar    1  UNL1       -0.2224
     22 C          66.0883   93.9356   12.7426 C.ar    1  UNL1        0.1382
     23 C          66.7840   95.0170   11.9703 C.ar    1  UNL1        0.0662
     24 C          66.7431   95.0128   10.4709 C.ar    1  UNL1        0.1431
     25 F          67.4389   96.0943    9.6986 F       1  UNL1       -0.2041
     26 C          66.0065   93.9272    9.7438 C.ar    1  UNL1        0.0296
     27 C          65.3107   92.8458   10.5160 C.ar    1  UNL1        0.0024
     28 C          65.3517   92.8500   12.0155 C.ar    1  UNL1        0.0278
     29 C          67.3930   93.5669   14.9589 C.3     1  UNL1        0.2525
     30 O          66.1292   93.9398   14.2421 O.3     1  UNL1       -0.4716
@<TRIPOS>BOND
     1    29    30    1
     2    30    22    1
     3    22    23   ar
     4    23    24   ar
     5    24    25    1
     6    24    26   ar
     7    26    27   ar
     8    27    28   ar
     9    28     1    1
    10     1     2    1
    11     2     3    1
    12     3     8    1
    13     8     9   ar
    14     9    10   ar
    15    10    16    1
    16    16    17   ar
    17    17    18   ar
    18    18    19   ar
    19    19    20   ar
    20    20    21   ar
    21    10    11   ar
    22    11    12   ar
    23    12    13    2
    24    12    14   ar
    25    14    15    1
    26     3     4    1
    27     4     5    1
    28     5     6    1
    29    28    22   ar
    30     6     1    1
    31    14     8   ar
    32    21    16   ar
    33     6     7    1
@<TRIPOS>MOLECULE
*****
 30 33 0 0 0
SMALL
GASTEIGER

@<TRIPOS>ATOM
      1 C          62.6706   87.1289   11.9692 C.3     1  UNL1        0.0999
      2 C          63.1664   88.5068   12.2939 C.3     1  UNL1        0.1138
      3 N          63.9985   88.7347   13.5209 N.pl3   1  UNL1       -0.2763
      4 C          64.3349   87.5846   14.4233 C.3     1  UNL1        0.1107
      5 C          63.8392   86.2067   14.0985 C.3     1  UNL1        0.0906
      6 N          63.0070   85.9788   12.8714 N.3     1  UNL1       -0.2922
      7 H          62.1213   85.5823   13.1858 H       1  UNL1        0.1236
      8 C          64.4943   90.1127   13.8456 C.ar    1  UNL1        0.2035
      9 N          65.1340   90.9505   12.7785 N.ar    1  UNL1       -0.2133
     10 C          65.6297   92.3284   13.1032 C.ar    1  UNL1        0.1065
     11 C          65.4858   92.8686   14.4951 C.ar    1  UNL1        0.0815
     12 C          64.8461   92.0308   15.5624 C.ar    1  UNL1        0.2646
     13 O          64.7022   92.5710   16.9543 O.2     1  UNL1       -0.2668
     14 N          64.3504   90.6529   15.2376 N.ar    1  UNL1       -0.2667
     15 C          63.7107   89.8151   16.3048 C.3     1  UNL1        0.1363
     16 C          66.2694   93.1662   12.0359 C.ar    1  UNL1        0.1024
     17 C          67.0614   92.5120   10.9429 C.ar    1  UNL1        0.0414
     18 C          67.7011   93.3497    9.8758 C.ar    1  UNL1        0.1023
     19 N          67.5487   94.8417    9.9015 N.ar    1  UNL1       -0.2224
     20 C          66.7567   95.4960   10.9945 C.ar    1  UNL1        0.1989
     21 N          66.1171   94.6582   12.0617 N.ar    1  UNL1       -0.2224
     22 C          60.4703   87.5074   10.6405 C.ar    1  UNL1        0.1382
     23 C          59.6383   87.2796    9.4134 C.ar    1  UNL1        0.0662
     24 C          60.1743   86.4453    8.2880 C.ar    1  UNL1        0.1431
     25 F          59.3422   86.2174    7.0609 F       1  UNL1       -0.2041
     26 C          61.5425   85.8389    8.3896 C.ar    1  UNL1        0.0296
     27 C          62.3746   86.0667    9.6166 C.ar    1  UNL1        0.0024
     28 C          61.8385   86.9010   10.7421 C.ar    1  UNL1        0.0278
     29 C          59.7628   89.8211   11.5872 C.3     1  UNL1        0.2525
     30 O          59.9343   88.3417   11.7659 O.3     1  UNL1       -0.4716
@<TRIPOS>BOND
     1    29    30    1
     2    30    22    1
     3    22    23   ar
     4    23    24   ar
     5    24    25    1
     6    24    26   ar
     7    26    27   ar
     8    27    28   ar
     9    28     1    1
    10     1     2    1
    11     2     3    1
    12     3     8    1
    13     8     9   ar
    14     9    10   ar
    15    10    16    1
    16    16    17   ar
    17    17    18   ar
    18    18    19   ar
    19    19    20   ar
    20    20    21   ar
    21    10    11   ar
    22    11    12   ar
    23    12    13    2
    24    12    14   ar
    25    14    15    1
    26     3     4    1
    27     4     5    1
    28     5     6    1
    29    28    22   ar
    30     6     1    1
    31    14     8   ar
    32    21    16   ar
    33     6     7    1
@<TRIPOS>MOLECULE
*****
 30 33 0 0 0
SMALL
GASTEIGER

@<TRIPOS>ATOM
      1 C          63.6071   84.1876   13.1946 C.3     1  UNL1        0.0999
      2 C          63.5375   85.5857   12.6555 C.3     1  UNL1        0.1138
      3 N          63.6735   86.7554   13.5846 N.pl3   1  UNL1       -0.2763
      4 C          63.8791   86.5271   15.0529 C.3     1  UNL1        0.1107
      5 C          63.9487   85.1290   15.5920 C.3     1  UNL1        0.0906
      6 N          63.8127   83.9593   14.6628 N.3     1  UNL1       -0.2922
      7 H          63.0153   83.4141   14.9905 H       1  UNL1        0.1236
      8 C          63.6039   88.1535   13.0455 C.ar    1  UNL1        0.2035
      9 N          64.4537   89.2327   13.6480 N.ar    1  UNL1       -0.2133
     10 C          64.3841   90.6308   13.1089 C.ar    1  UNL1        0.1065
     11 C          63.4647   90.9496   11.9674 C.ar    1  UNL1        0.0815
     12 C          62.6149   89.8702   11.3649 C.ar    1  UNL1        0.2646
     13 O          61.6956   90.1890   10.2233 O.2     1  UNL1       -0.2668
     14 N          62.6845   88.4722   11.9039 N.ar    1  UNL1       -0.2667
     15 C          61.8347   87.3929   11.3015 C.3     1  UNL1        0.1363
     16 C          65.2339   91.7101   13.7114 C.ar    1  UNL1        0.1024
     17 C          65.6657   91.6125   15.1446 C.ar    1  UNL1        0.0414
     18 C          66.5155   92.6917   15.7470 C.ar    1  UNL1        0.1023
     19 N          66.9335   93.8687   14.9163 N.ar    1  UNL1       -0.2224
     20 C          66.5017   93.9663   13.4831 C.ar    1  UNL1        0.1989
     21 N          65.6520   92.8870   12.8807 N.ar    1  UNL1       -0.2224
     22 C          62.6649   81.8221   12.6780 C.ar    1  UNL1        0.1382
     23 C          62.5289   80.6525   11.7489 C.ar    1  UNL1        0.0662
     24 C          63.1991   80.6786   10.4072 C.ar    1  UNL1        0.1431
     25 F          63.0631   79.5088    9.4780 F       1  UNL1       -0.2041
     26 C          64.0052   81.8743    9.9946 C.ar    1  UNL1        0.0296
     27 C          64.1412   83.0440   10.9237 C.ar    1  UNL1        0.0024
     28 C          63.4710   83.0179   12.2655 C.ar    1  UNL1        0.0278
     29 C          60.8686   80.8393   14.2771 C.3     1  UNL1        0.2525
     30 O          61.9948   81.7960   14.0198 O.3     1  UNL1       -0.4716
@<TRIPOS>BOND
     1    29    30    1
     2    30    22    1
     3    22    23   ar
     4    23    24   ar
     5    24    25    1
     6    24    26   ar
     7    26    27   ar
     8    27    28   ar
     9    28     1    1
    10     1     2    1
    11     2     3    1
    12     3     8    1
    13     8     9   ar
    14     9    10   ar
    15    10    16    1
    16    16    17   ar
    17    17    18   ar
    18    18    19   ar
    19    19    20   ar
    20    20    21   ar
    21    10    11   ar
    22    11    12   ar
    23    12    13    2
    24    12    14   ar
    25    14    15    1
    26     3     4    1
    27     4     5    1
    28     5     6    1
    29    28    22   ar
    30     6     1    1
    31    14     8   ar
    32    21    16   ar
    33     6     7    1
@<TRIPOS>MOLECULE
*****
 30 33 0 0 0
SMALL
GASTEIGER

@<TRIPOS>ATOM
      1 C          62.5076   87.5321   11.7504 C.3     1  UNL1        0.0999
      2 C          63.0911   88.8707   12.0936 C.3     1  UNL1        0.1138
      3 N          63.9868   89.0145   13.2881 N.pl3   1  UNL1       -0.2763
      4 C          64.2990   87.8197   14.1396 C.3     1  UNL1        0.1107
      5 C          63.7155   86.4811   13.7965 C.3     1  UNL1        0.0906
      6 N          62.8198   86.3373   12.6019 N.3     1  UNL1       -0.2922
      7 H          61.9283   85.9783   12.9438 H       1  UNL1        0.1236
      8 C          64.5702   90.3531   13.6312 C.ar    1  UNL1        0.2035
      9 N          65.2166   91.1854   12.5638 N.ar    1  UNL1       -0.2133
     10 C          65.8001   92.5239   12.9069 C.ar    1  UNL1        0.1065
     11 C          65.7372   93.0302   14.3174 C.ar    1  UNL1        0.0815
     12 C          65.0908   92.1979   15.3850 C.ar    1  UNL1        0.2646
     13 O          65.0280   92.7042   16.7955 O.2     1  UNL1       -0.2668
     14 N          64.5073   90.8594   15.0419 N.ar    1  UNL1       -0.2667
     15 C          63.8610   90.0271   16.1093 C.3     1  UNL1        0.1363
     16 C          66.4465   93.3563   11.8394 C.ar    1  UNL1        0.1024
     17 C          66.1405   94.8215   11.7426 C.ar    1  UNL1        0.0414
     18 C          66.7869   95.6537   10.6751 C.ar    1  UNL1        0.1023
     19 N          67.7393   95.0207    9.7044 N.ar    1  UNL1       -0.2224
     20 C          68.0453   93.5555    9.8012 C.ar    1  UNL1        0.1989
     21 N          67.3989   92.7232   10.8687 N.ar    1  UNL1       -0.2224
     22 C          61.5903   86.1017    9.7851 C.ar    1  UNL1        0.1382
     23 C          60.6946   85.9580    8.5905 C.ar    1  UNL1        0.0662
     24 C          59.8205   87.1009    8.1667 C.ar    1  UNL1        0.1431
     25 F          58.9247   86.9571    6.9721 F       1  UNL1       -0.2041
     26 C          59.8420   88.3875    8.9374 C.ar    1  UNL1        0.0296
     27 C          60.7377   88.5312   10.1320 C.ar    1  UNL1        0.0024
     28 C          61.6119   87.3883   10.5558 C.ar    1  UNL1        0.0278
     29 C          63.4572   84.3769    9.2467 C.3     1  UNL1        0.2525
     30 O          62.4645   84.9588   10.2089 O.3     1  UNL1       -0.4716
@<TRIPOS>BOND
     1    29    30    1
     2    30    22    1
     3    22    23   ar
     4    23    24   ar
     5    24    25    1
     6    24    26   ar
     7    26    27   ar
     8    27    28   ar
     9    28     1    1
    10     1     2    1
    11     2     3    1
    12     3     8    1
    13     8     9   ar
    14     9    10   ar
    15    10    16    1
    16    16    17   ar
    17    17    18   ar
    18    18    19   ar
    19    19    20   ar
    20    20    21   ar
    21    10    11   ar
    22    11    12   ar
    23    12    13    2
    24    12    14   ar
    25    14    15    1
    26     3     4    1
    27     4     5    1
    28     5     6    1
    29    28    22   ar
    30     6     1    1
    31    14     8   ar
    32    21    16   ar
    33     6     7    1
@<TRIPOS>MOLECULE
*****
 30 33 0 0 0
SMALL
GASTEIGER

@<TRIPOS>ATOM
      1 C          63.4882   84.6417   13.8294 C.3     1  UNL1        0.0999
      2 C          63.2788   85.8126   12.9156 C.3     1  UNL1        0.1138
      3 N          63.5528   87.2040   13.4045 N.pl3   1  UNL1       -0.2763
      4 C          64.0362   87.4245   14.8073 C.3     1  UNL1        0.1107
      5 C          64.2457   86.2536   15.7211 C.3     1  UNL1        0.0906
      6 N          63.9717   84.8622   15.2321 N.3     1  UNL1       -0.2922
      7 H          63.2658   84.4657   15.8526 H       1  UNL1        0.1236
      8 C          63.3433   88.3749   12.4906 C.ar    1  UNL1        0.2035
      9 N          64.1694   89.6154   12.6597 N.ar    1  UNL1       -0.2133
     10 C          63.9599   90.7863   11.7459 C.ar    1  UNL1        0.1065
     11 C          62.9244   90.7167   10.6630 C.ar    1  UNL1        0.0815
     12 C          62.0983   89.4761   10.4938 C.ar    1  UNL1        0.2646
     13 O          61.0627   89.4065    9.4109 O.2     1  UNL1       -0.2668
     14 N          62.3077   88.3052   11.4077 N.ar    1  UNL1       -0.2667
     15 C          61.4816   87.0647   11.2386 C.3     1  UNL1        0.1363
     16 C          64.7861   92.0269   11.9150 C.ar    1  UNL1        0.1024
     17 C          65.0433   92.9227   10.7398 C.ar    1  UNL1        0.0414
     18 C          65.8694   94.1632   10.9089 C.ar    1  UNL1        0.1023
     19 N          66.4383   94.5079   12.2534 N.ar    1  UNL1       -0.2224
     20 C          66.1811   93.6121   13.4287 C.ar    1  UNL1        0.1989
     21 N          65.3550   92.3716   13.2595 N.ar    1  UNL1       -0.2224
     22 C          63.5300   82.8780   11.9222 C.ar    1  UNL1        0.1382
     23 C          63.2560   81.4867   11.4333 C.ar    1  UNL1        0.0662
     24 C          62.6663   80.4676   12.3627 C.ar    1  UNL1        0.1431
     25 F          62.3923   79.0762   11.8738 F       1  UNL1       -0.2041
     26 C          62.3506   80.8400   13.7810 C.ar    1  UNL1        0.0296
     27 C          62.6246   82.2313   14.2699 C.ar    1  UNL1        0.0024
     28 C          63.2143   83.2503   13.3405 C.ar    1  UNL1        0.0278
     29 C          63.5576   84.0674    9.6125 C.3     1  UNL1        0.2525
     30 O          64.1196   83.8970   10.9927 O.3     1  UNL1       -0.4716
@<TRIPOS>BOND
     1    29    30    1
     2    30    22    1
     3    22    23   ar
     4    23    24   ar
     5    24    25    1
     6    24    26   ar
     7    26    27   ar
     8    27    28   ar
     9    28     1    1
    10     1     2    1
    11     2     3    1
    12     3     8    1
    13     8     9   ar
    14     9    10   ar
    15    10    16    1
    16    16    17   ar
    17    17    18   ar
    18    18    19   ar
    19    19    20   ar
    20    20    21   ar
    21    10    11   ar
    22    11    12   ar
    23    12    13    2
    24    12    14   ar
    25    14    15    1
    26     3     4    1
    27     4     5    1
    28     5     6    1
    29    28    22   ar
    30     6     1    1
    31    14     8   ar
    32    21    16   ar
    33     6     7    1
@<TRIPOS>MOLECULE
*****
 30 33 0 0 0
SMALL
GASTEIGER

@<TRIPOS>ATOM
      1 C          62.7515   88.9353   11.6950 C.3     1  UNL1        0.0999
      2 C          63.4894   90.2412   11.7078 C.3     1  UNL1        0.1138
      3 N          64.4172   90.5672   12.8405 N.pl3   1  UNL1       -0.2763
      4 C          64.6070   89.5874   13.9603 C.3     1  UNL1        0.1107
      5 C          63.8690   88.2815   13.9475 C.3     1  UNL1        0.0906
      6 N          62.9412   87.9555   12.8147 N.3     1  UNL1       -0.2922
      7 H          62.0211   87.7950   13.2247 H       1  UNL1        0.1236
      8 C          65.1551   91.8731   12.8534 C.ar    1  UNL1        0.2035
      9 N          65.2196   92.7104   11.6105 N.ar    1  UNL1       -0.2133
     10 C          65.9576   94.0162   11.6234 C.ar    1  UNL1        0.1065
     11 C          66.6311   94.4848   12.8791 C.ar    1  UNL1        0.0815
     12 C          66.5666   93.6474   14.1220 C.ar    1  UNL1        0.2646
     13 O          67.2401   94.1159   15.3777 O.2     1  UNL1       -0.2668
     14 N          65.8287   92.3416   14.1092 N.ar    1  UNL1       -0.2667
     15 C          65.7642   91.5042   15.3520 C.3     1  UNL1        0.1363
     16 C          66.0221   94.8536   10.3805 C.ar    1  UNL1        0.1024
     17 C          67.0161   94.5258    9.3061 C.ar    1  UNL1        0.0414
     18 C          67.0806   95.3631    8.0632 C.ar    1  UNL1        0.1023
     19 N          66.1509   96.5282    7.8948 N.ar    1  UNL1       -0.2224
     20 C          65.1568   96.8559    8.9692 C.ar    1  UNL1        0.1989
     21 N          65.0924   96.0186   10.2120 N.ar    1  UNL1       -0.2224
     22 C          61.6556   87.1871   10.1160 C.ar    1  UNL1        0.1382
     23 C          60.7279   86.8612    8.9833 C.ar    1  UNL1        0.0662
     24 C          59.9682   87.9574    8.2969 C.ar    1  UNL1        0.1431
     25 F          59.0404   87.6314    7.1642 F       1  UNL1       -0.2041
     26 C          60.1362   89.3795    8.7431 C.ar    1  UNL1        0.0296
     27 C          61.0640   89.7055    9.8758 C.ar    1  UNL1        0.0024
     28 C          61.8237   88.6093   10.5622 C.ar    1  UNL1        0.0278
     29 C          62.9032   84.9104   10.0162 C.3     1  UNL1        0.2525
     30 O          62.4153   86.0909   10.8024 O.3     1  UNL1       -0.4716
@<TRIPOS>BOND
     1    29    30    1
     2    30    22    1
     3    22    23   ar
     4    23    24   ar
     5    24    25    1
     6    24    26   ar
     7    26    27   ar
     8    27    28   ar
     9    28     1    1
    10     1     2    1
    11     2     3    1
    12     3     8    1
    13     8     9   ar
    14     9    10   ar
    15    10    16    1
    16    16    17   ar
    17    17    18   ar
    18    18    19   ar
    19    19    20   ar
    20    20    21   ar
    21    10    11   ar
    22    11    12   ar
    23    12    13    2
    24    12    14   ar
    25    14    15    1
    26     3     4    1
    27     4     5    1
    28     5     6    1
    29    28    22   ar
    30     6     1    1
    31    14     8   ar
    32    21    16   ar
    33     6     7    1
