@<TRIPOS>MOLECULE
*****
 37 41 0 0 0
SMALL
GASTEIGER

@<TRIPOS>ATOM
      1 N          62.3060   87.3600   11.8803 N.ar    1  UNL1       -0.2558
      2 N          61.3504   88.1613   11.0467 N.ar    1  UNL1       -0.1727
      3 C          61.4668   89.5984   11.4604 C.ar    1  UNL1        0.0935
      4 C          60.6919   90.7470   10.8858 C.3     1  UNL1        0.0553
      5 C          62.4945   89.6853   12.5498 C.ar    1  UNL1        0.0792
      6 C          63.0130   88.3018   12.8092 C.ar    1  UNL1        0.0704
      7 C          64.0556   87.9263   13.8201 C.3     1  UNL1        0.0531
      8 C          63.1516   81.4287   11.5559 C.2     1  UNL1        0.2418
      9 O          63.2825   80.7618   10.2187 O.2     1  UNL1       -0.2734
     10 N          62.9402   82.9116   11.6369 N.am    1  UNL1       -0.2783
     11 C          62.8093   83.5784   12.9742 C.3     1  UNL1        0.0954
     12 C          62.5979   85.0613   13.0553 C.3     1  UNL1        0.0459
     13 C          62.5174   85.8772   11.7992 C.3     1  UNL1        0.1083
     14 C          62.6483   85.2103   10.4620 C.3     1  UNL1        0.0459
     15 C          62.8597   83.7275   10.3808 C.3     1  UNL1        0.0954
     16 C          63.2321   80.6128   12.8120 C.3     1  UNL1        0.1552
     17 C          60.9991   80.7705   14.1306 C.3     1  UNL1        0.0862
     18 N          61.9992   79.9589   13.3618 N.3     1  UNL1       -0.2886
     19 H          61.5022   79.5536   12.5686 H       1  UNL1        0.1237
     20 N          62.9274   90.9360   13.2556 N.pl3   1  UNL1       -0.2806
     21 H          62.2560   91.5249   13.6699 H       1  UNL1        0.1551
     22 C          64.3832   91.2895   13.3303 C.ar    1  UNL1        0.2208
     23 N          65.1597   91.0094   14.5827 N.ar    1  UNL1       -0.2111
     24 C          66.6155   91.3629   14.6574 C.ar    1  UNL1        0.1147
     25 C          67.2948   91.9965   13.4796 C.ar    1  UNL1        0.0946
     26 CL         68.7507   92.3500   13.5543 Cl      1  UNL1       -0.0790
     27 C          66.5183   92.2766   12.2271 C.ar    1  UNL1        0.0992
     28 N          65.0625   91.9231   12.1525 N.ar    1  UNL1       -0.2126
     29 C          67.1976   92.9102   11.0494 C.ar    1  UNL1        0.0572
     30 C          68.2849   92.2923   10.2212 C.ar    1  UNL1        0.1235
     31 N          68.6682   93.2732    9.1530 N.ar    1  UNL1       -0.1634
     32 N          67.8177   94.4973    9.3210 N.ar    1  UNL1       -0.2281
     33 C          67.7534   95.7872    8.5582 C.ar    1  UNL1        0.1004
     34 C          66.7803   96.8528    8.9674 C.ar    1  UNL1        0.0207
     35 C          65.8714   96.6285   10.1394 C.ar    1  UNL1        0.0031
     36 C          65.9357   95.3385   10.9022 C.ar    1  UNL1        0.0193
     37 C          66.9088   94.2730   10.4930 C.ar    1  UNL1        0.0858
@<TRIPOS>BOND
     1    17    18    1
     2    18    16    1
     3    16     8    1
     4     8     9    2
     5     8    10   am
     6    10    11    1
     7    11    12    1
     8    12    13    1
     9    13     1    1
    10     1     2   ar
    11     2     3   ar
    12     3     4    1
    13     3     5   ar
    14     5    20    1
    15    20    22    1
    16    22    23   ar
    17    23    24   ar
    18    24    25   ar
    19    25    26    1
    20    25    27   ar
    21    27    29    1
    22    29    30   ar
    23    30    31   ar
    24    31    32   ar
    25    32    33   ar
    26    33    34   ar
    27    34    35   ar
    28    35    36   ar
    29    36    37   ar
    30    27    28   ar
    31     5     6   ar
    32     6     7    1
    33    13    14    1
    34    14    15    1
    35    15    10    1
    36     6     1   ar
    37    28    22   ar
    38    37    29   ar
    39    37    32   ar
    40    18    19    1
    41    20    21    1
@<TRIPOS>MOLECULE
*****
 37 41 0 0 0
SMALL
GASTEIGER

@<TRIPOS>ATOM
      1 N          63.9249   88.4199   15.2026 N.ar    1  UNL1       -0.2558
      2 N          63.2310   88.5196   16.5288 N.ar    1  UNL1       -0.1727
      3 C          63.0788   87.1320   17.0778 C.ar    1  UNL1        0.0935
      4 C          62.4391   86.7659   18.3842 C.3     1  UNL1        0.0553
      5 C          63.6787   86.1747   16.0909 C.ar    1  UNL1        0.0792
      6 C          64.2016   86.9707   14.9321 C.ar    1  UNL1        0.0704
      7 C          64.8817   86.4150   13.7162 C.3     1  UNL1        0.0531
      8 C          65.3448   93.0118   11.6111 C.2     1  UNL1        0.2418
      9 O          64.6648   93.1630   10.2827 O.2     1  UNL1       -0.2734
     10 N          64.9898   91.8637   12.5090 N.am    1  UNL1       -0.2783
     11 C          65.6698   91.7126   13.8375 C.3     1  UNL1        0.0954
     12 C          65.3148   90.5646   14.7354 C.3     1  UNL1        0.0459
     13 C          64.2799   89.5678   14.3048 C.3     1  UNL1        0.1083
     14 C          63.5999   89.7191   12.9764 C.3     1  UNL1        0.0459
     15 C          63.9548   90.8670   12.0785 C.3     1  UNL1        0.0954
     16 C          66.3797   94.0085   12.0417 C.3     1  UNL1        0.1552
     17 C          66.0631   96.3916   11.0566 C.3     1  UNL1        0.0862
     18 N          66.0039   95.4494   12.2223 N.3     1  UNL1       -0.2886
     19 H          65.0426   95.4625   12.5630 H       1  UNL1        0.1237
     20 N          63.7441   84.6833   16.2374 N.pl3   1  UNL1       -0.2806
     21 H          63.9799   84.2838   17.1057 H       1  UNL1        0.1551
     22 C          63.4501   83.8005   15.0608 C.ar    1  UNL1        0.2208
     23 N          63.2084   82.3343   15.2652 N.ar    1  UNL1       -0.2111
     24 C          62.9145   81.4515   14.0886 C.ar    1  UNL1        0.1147
     25 C          62.8623   82.0349   12.7077 C.ar    1  UNL1        0.0946
     26 CL         62.5684   81.1522   11.5311 Cl      1  UNL1       -0.0790
     27 C          63.1040   83.5013   12.5034 C.ar    1  UNL1        0.0992
     28 N          63.3979   84.3839   13.6799 N.ar    1  UNL1       -0.2126
     29 C          63.0519   84.0847   11.1224 C.ar    1  UNL1        0.0572
     30 C          63.7760   83.5629    9.9169 C.ar    1  UNL1        0.1235
     31 N          63.4380   84.4481    8.7541 N.ar    1  UNL1       -0.1634
     32 N          62.5050   85.5169    9.2409 N.ar    1  UNL1       -0.2281
     33 C          61.8419   86.6657    8.5405 C.ar    1  UNL1        0.1004
     34 C          60.9402   87.5899    9.3039 C.ar    1  UNL1        0.0207
     35 C          60.7015   87.3653   10.7676 C.ar    1  UNL1        0.0031
     36 C          61.3646   86.2165   11.4681 C.ar    1  UNL1        0.0193
     37 C          62.2663   85.2924   10.7047 C.ar    1  UNL1        0.0858
@<TRIPOS>BOND
     1    17    18    1
     2    18    16    1
     3    16     8    1
     4     8     9    2
     5     8    10   am
     6    10    11    1
     7    11    12    1
     8    12    13    1
     9    13     1    1
    10     1     2   ar
    11     2     3   ar
    12     3     4    1
    13     3     5   ar
    14     5    20    1
    15    20    22    1
    16    22    23   ar
    17    23    24   ar
    18    24    25   ar
    19    25    26    1
    20    25    27   ar
    21    27    29    1
    22    29    30   ar
    23    30    31   ar
    24    31    32   ar
    25    32    33   ar
    26    33    34   ar
    27    34    35   ar
    28    35    36   ar
    29    36    37   ar
    30    27    28   ar
    31     5     6   ar
    32     6     7    1
    33    13    14    1
    34    14    15    1
    35    15    10    1
    36     6     1   ar
    37    28    22   ar
    38    37    29   ar
    39    37    32   ar
    40    18    19    1
    41    20    21    1
@<TRIPOS>MOLECULE
*****
 37 41 0 0 0
SMALL
GASTEIGER

@<TRIPOS>ATOM
      1 N          63.4636   87.1636   13.4943 N.ar    1  UNL1       -0.2558
      2 N          63.3082   88.0095   12.2652 N.ar    1  UNL1       -0.1727
      3 C          63.2899   89.4475   12.6915 C.ar    1  UNL1        0.0935
      4 C          63.1517   90.6343   11.7847 C.3     1  UNL1        0.0553
      5 C          63.4341   89.4904   14.1840 C.ar    1  UNL1        0.0792
      6 C          63.5415   88.0788   14.6801 C.ar    1  UNL1        0.0704
      7 C          63.6990   87.6567   16.1107 C.3     1  UNL1        0.0531
      8 C          63.7277   81.1712   13.6410 C.2     1  UNL1        0.2418
      9 O          64.7236   80.4858   14.5290 O.2     1  UNL1       -0.2734
     10 N          63.6617   82.6693   13.6043 N.am    1  UNL1       -0.2783
     11 C          62.6658   83.3546   12.7162 C.3     1  UNL1        0.0954
     12 C          62.5998   84.8527   12.6796 C.3     1  UNL1        0.0459
     13 C          63.5297   85.6655   13.5309 C.3     1  UNL1        0.1083
     14 C          64.5254   84.9802   14.4189 C.3     1  UNL1        0.0459
     15 C          64.5915   83.4821   14.4557 C.3     1  UNL1        0.0954
     16 C          62.7979   80.3584   12.7896 C.3     1  UNL1        0.1552
     17 C          60.5719   80.6617   14.0946 C.3     1  UNL1        0.0862
     18 N          61.5522   79.7739   13.3867 N.3     1  UNL1       -0.2886
     19 H          61.0446   79.3227   12.6258 H       1  UNL1        0.1237
     20 N          63.4655   90.7276   15.0315 N.pl3   1  UNL1       -0.2806
     21 H          62.7035   90.9429   15.6167 H       1  UNL1        0.1551
     22 C          64.6576   91.6369   14.9876 C.ar    1  UNL1        0.2208
     23 N          65.5189   91.8037   16.2043 N.ar    1  UNL1       -0.2111
     24 C          66.7111   92.7129   16.1603 C.ar    1  UNL1        0.1147
     25 C          67.0420   93.4554   14.8996 C.ar    1  UNL1        0.0946
     26 CL         68.2341   94.3647   14.8557 Cl      1  UNL1       -0.0790
     27 C          66.1806   93.2886   13.6829 C.ar    1  UNL1        0.0992
     28 N          64.9885   92.3794   13.7269 N.ar    1  UNL1       -0.2126
     29 C          66.5115   94.0311   12.4222 C.ar    1  UNL1        0.0572
     30 C          66.2396   95.4821   12.1564 C.ar    1  UNL1        0.1235
     31 N          66.7325   95.8006   10.7760 N.ar    1  UNL1       -0.1634
     32 N          67.3089   94.5465   10.1886 N.ar    1  UNL1       -0.2281
     33 C          67.9405   94.2592    8.8588 C.ar    1  UNL1        0.1004
     34 C          68.4355   92.8781    8.5465 C.ar    1  UNL1        0.0207
     35 C          68.2989   91.7844    9.5639 C.ar    1  UNL1        0.0031
     36 C          67.6673   92.0718   10.8937 C.ar    1  UNL1        0.0193
     37 C          67.1723   93.4529   11.2061 C.ar    1  UNL1        0.0858
@<TRIPOS>BOND
     1    17    18    1
     2    18    16    1
     3    16     8    1
     4     8     9    2
     5     8    10   am
     6    10    11    1
     7    11    12    1
     8    12    13    1
     9    13     1    1
    10     1     2   ar
    11     2     3   ar
    12     3     4    1
    13     3     5   ar
    14     5    20    1
    15    20    22    1
    16    22    23   ar
    17    23    24   ar
    18    24    25   ar
    19    25    26    1
    20    25    27   ar
    21    27    29    1
    22    29    30   ar
    23    30    31   ar
    24    31    32   ar
    25    32    33   ar
    26    33    34   ar
    27    34    35   ar
    28    35    36   ar
    29    36    37   ar
    30    27    28   ar
    31     5     6   ar
    32     6     7    1
    33    13    14    1
    34    14    15    1
    35    15    10    1
    36     6     1   ar
    37    28    22   ar
    38    37    29   ar
    39    37    32   ar
    40    18    19    1
    41    20    21    1
@<TRIPOS>MOLECULE
*****
 37 41 0 0 0
SMALL
GASTEIGER

@<TRIPOS>ATOM
      1 N          62.3910   90.5913   12.7240 N.ar    1  UNL1       -0.2558
      2 N          61.1611   90.0864   13.4188 N.ar    1  UNL1       -0.1727
      3 C          60.1405   89.7538   12.3711 C.ar    1  UNL1        0.0935
      4 C          58.7627   89.2163   12.6217 C.3     1  UNL1        0.0553
      5 C          60.7395   90.0531   11.0289 C.ar    1  UNL1        0.0792
      6 C          62.1304   90.5707   11.2470 C.ar    1  UNL1        0.0704
      7 C          63.0918   90.9935   10.1762 C.3     1  UNL1        0.0531
      8 C          67.4623   92.3793   15.3859 C.2     1  UNL1        0.2418
      9 O          67.6213   92.2351   16.8704 O.2     1  UNL1       -0.2734
     10 N          66.1944   91.9323   14.7204 N.am    1  UNL1       -0.2783
     11 C          66.0355   92.0766   13.2358 C.3     1  UNL1        0.0954
     12 C          64.7676   91.6295   12.5704 C.3     1  UNL1        0.0459
     13 C          63.6588   91.0383   13.3895 C.3     1  UNL1        0.1083
     14 C          63.8178   90.8941   14.8740 C.3     1  UNL1        0.0459
     15 C          65.0856   91.3411   15.5395 C.3     1  UNL1        0.0954
     16 C          68.5711   92.9705   14.5667 C.3     1  UNL1        0.1552
     17 C          69.0389   91.6139   12.4010 C.3     1  UNL1        0.0862
     18 N          69.4675   92.0769   13.7618 N.3     1  UNL1       -0.2886
     19 H          70.3482   92.5767   13.6390 H       1  UNL1        0.1237
     20 N          60.0659   89.8674    9.7016 N.pl3   1  UNL1       -0.2806
     21 H          59.5328   90.5985    9.3136 H       1  UNL1        0.1551
     22 C          60.2044   88.5678    8.9655 C.ar    1  UNL1        0.2208
     23 N          59.3282   88.2787    7.7829 N.ar    1  UNL1       -0.2111
     24 C          59.4667   86.9791    7.0467 C.ar    1  UNL1        0.1147
     25 C          60.4815   85.9687    7.4932 C.ar    1  UNL1        0.0946
     26 CL         60.6200   84.6691    6.7571 Cl      1  UNL1       -0.0790
     27 C          61.3577   86.2579    8.6759 C.ar    1  UNL1        0.0992
     28 N          61.2192   87.5574    9.4120 N.ar    1  UNL1       -0.2126
     29 C          62.3725   85.2474    9.1224 C.ar    1  UNL1        0.0572
     30 C          63.2705   84.4452    8.2280 C.ar    1  UNL1        0.1235
     31 N          64.1204   83.5639    9.0946 N.ar    1  UNL1       -0.1634
     32 N          63.7475   83.8213   10.5245 N.ar    1  UNL1       -0.2281
     33 C          64.2522   83.2427   11.8131 C.ar    1  UNL1        0.1004
     34 C          63.6765   83.7047   13.1189 C.ar    1  UNL1        0.0207
     35 C          62.5962   84.7452   13.1361 C.ar    1  UNL1        0.0031
     36 C          62.0916   85.3238   11.8475 C.ar    1  UNL1        0.0193
     37 C          62.6673   84.8619   10.5417 C.ar    1  UNL1        0.0858
@<TRIPOS>BOND
     1    17    18    1
     2    18    16    1
     3    16     8    1
     4     8     9    2
     5     8    10   am
     6    10    11    1
     7    11    12    1
     8    12    13    1
     9    13     1    1
    10     1     2   ar
    11     2     3   ar
    12     3     4    1
    13     3     5   ar
    14     5    20    1
    15    20    22    1
    16    22    23   ar
    17    23    24   ar
    18    24    25   ar
    19    25    26    1
    20    25    27   ar
    21    27    29    1
    22    29    30   ar
    23    30    31   ar
    24    31    32   ar
    25    32    33   ar
    26    33    34   ar
    27    34    35   ar
    28    35    36   ar
    29    36    37   ar
    30    27    28   ar
    31     5     6   ar
    32     6     7    1
    33    13    14    1
    34    14    15    1
    35    15    10    1
    36     6     1   ar
    37    28    22   ar
    38    37    29   ar
    39    37    32   ar
    40    18    19    1
    41    20    21    1
@<TRIPOS>MOLECULE
*****
 37 41 0 0 0
SMALL
GASTEIGER

@<TRIPOS>ATOM
      1 N          62.5736   87.1844   12.0870 N.ar    1  UNL1       -0.2558
      2 N          61.9419   88.1094   11.0893 N.ar    1  UNL1       -0.1727
      3 C          62.0088   89.5025   11.6415 C.ar    1  UNL1        0.0935
      4 C          61.4931   90.7419   10.9723 C.3     1  UNL1        0.0553
      5 C          62.6819   89.4384   12.9806 C.ar    1  UNL1        0.0792
      6 C          63.0310   88.0057   13.2558 C.ar    1  UNL1        0.0704
      7 C          63.7170   87.4858   14.4842 C.3     1  UNL1        0.0531
      8 C          63.1670   81.2423   11.5046 C.2     1  UNL1        0.2418
      9 O          63.2647   80.6285   10.1394 O.2     1  UNL1       -0.2734
     10 N          63.0187   82.7279   11.6502 N.am    1  UNL1       -0.2783
     11 C          62.9211   83.3415   13.0154 C.3     1  UNL1        0.0954
     12 C          62.7727   84.8272   13.1610 C.3     1  UNL1        0.0459
     13 C          62.7220   85.6989   11.9414 C.3     1  UNL1        0.1083
     14 C          62.8196   85.0852   10.5763 C.3     1  UNL1        0.0459
     15 C          62.9680   83.5996   10.4306 C.3     1  UNL1        0.0954
     16 C          63.2177   80.3705   12.7242 C.3     1  UNL1        0.1552
     17 C          61.0400   80.7194   14.0974 C.3     1  UNL1        0.0862
     18 N          61.9490   79.8240   13.3087 N.3     1  UNL1       -0.2886
     19 H          61.3999   79.4585   12.5307 H       1  UNL1        0.1237
     20 N          62.9575   90.6026   13.8853 N.pl3   1  UNL1       -0.2806
     21 H          62.2424   90.9591   14.4605 H       1  UNL1        0.1551
     22 C          64.3226   91.2238   13.9138 C.ar    1  UNL1        0.2208
     23 N          65.3034   90.8305   14.9783 N.ar    1  UNL1       -0.2111
     24 C          66.6685   91.4517   15.0067 C.ar    1  UNL1        0.1147
     25 C          67.0526   92.4661   13.9707 C.ar    1  UNL1        0.0946
     26 CL         68.4177   93.0872   13.9991 Cl      1  UNL1       -0.0790
     27 C          66.0717   92.8593   12.9061 C.ar    1  UNL1        0.0992
     28 N          64.7067   92.2381   12.8777 N.ar    1  UNL1       -0.2126
     29 C          66.4559   93.8736   11.8700 C.ar    1  UNL1        0.0572
     30 C          66.1765   95.3461   11.9315 C.ar    1  UNL1        0.1235
     31 N          66.7349   95.9761   10.6900 N.ar    1  UNL1       -0.1634
     32 N          67.3593   94.8930    9.8611 N.ar    1  UNL1       -0.2281
     33 C          68.0626   94.9220    8.5366 C.ar    1  UNL1        0.1004
     34 C          68.5935   93.6517    7.9414 C.ar    1  UNL1        0.0207
     35 C          68.4211   92.3523    8.6706 C.ar    1  UNL1        0.0031
     36 C          67.7178   92.3233    9.9952 C.ar    1  UNL1        0.0193
     37 C          67.1869   93.5936   10.5904 C.ar    1  UNL1        0.0858
@<TRIPOS>BOND
     1    17    18    1
     2    18    16    1
     3    16     8    1
     4     8     9    2
     5     8    10   am
     6    10    11    1
     7    11    12    1
     8    12    13    1
     9    13     1    1
    10     1     2   ar
    11     2     3   ar
    12     3     4    1
    13     3     5   ar
    14     5    20    1
    15    20    22    1
    16    22    23   ar
    17    23    24   ar
    18    24    25   ar
    19    25    26    1
    20    25    27   ar
    21    27    29    1
    22    29    30   ar
    23    30    31   ar
    24    31    32   ar
    25    32    33   ar
    26    33    34   ar
    27    34    35   ar
    28    35    36   ar
    29    36    37   ar
    30    27    28   ar
    31     5     6   ar
    32     6     7    1
    33    13    14    1
    34    14    15    1
    35    15    10    1
    36     6     1   ar
    37    28    22   ar
    38    37    29   ar
    39    37    32   ar
    40    18    19    1
    41    20    21    1
@<TRIPOS>MOLECULE
*****
 37 41 0 0 0
SMALL
GASTEIGER

@<TRIPOS>ATOM
      1 N          64.3664   91.4765   12.7738 N.ar    1  UNL1       -0.2558
      2 N          62.9814   90.9645   12.5095 N.ar    1  UNL1       -0.1727
      3 C          62.6676   89.9224   13.5417 C.ar    1  UNL1        0.0935
      4 C          61.3875   89.1483   13.6522 C.3     1  UNL1        0.0553
      5 C          63.8586   89.7903   14.4441 C.ar    1  UNL1        0.0792
      6 C          64.9085   90.7509   13.9694 C.ar    1  UNL1        0.0704
      7 C          66.2626   90.9505   14.5828 C.3     1  UNL1        0.0531
      8 C          67.2343   95.6878    9.6052 C.2     1  UNL1        0.2418
      9 O          67.8635   96.8552   10.3061 O.2     1  UNL1       -0.2734
     10 N          66.5173   94.6350   10.3974 N.am    1  UNL1       -0.2783
     11 C          65.8882   93.4676    9.6964 C.3     1  UNL1        0.0954
     12 C          65.1712   92.4147   10.4887 C.3     1  UNL1        0.0459
     13 C          65.0834   92.5293   11.9817 C.3     1  UNL1        0.1083
     14 C          65.7126   93.6967   12.6825 C.3     1  UNL1        0.0459
     15 C          66.4296   94.7496   11.8904 C.3     1  UNL1        0.0954
     16 C          67.3221   95.5732    8.1121 C.3     1  UNL1        0.1552
     17 C          65.0786   96.8554    7.8429 C.3     1  UNL1        0.0862
     18 N          66.1680   96.0065    7.2576 N.3     1  UNL1       -0.2886
     19 H          66.5611   96.5299    6.4753 H       1  UNL1        0.1237
     20 N          63.9785   88.8609   15.6153 N.pl3   1  UNL1       -0.2806
     21 H          64.2787   89.2046   16.4876 H       1  UNL1        0.1551
     22 C          63.6411   87.4079   15.4574 C.ar    1  UNL1        0.2208
     23 N          63.1089   86.6305   16.6246 N.ar    1  UNL1       -0.2111
     24 C          62.7715   85.1775   16.4667 C.ar    1  UNL1        0.1147
     25 C          62.9663   84.5019   15.1417 C.ar    1  UNL1        0.0946
     26 CL         62.6289   83.0489   14.9838 Cl      1  UNL1       -0.0790
     27 C          63.4985   85.2795   13.9744 C.ar    1  UNL1        0.0992
     28 N          63.8359   86.7324   14.1324 N.ar    1  UNL1       -0.2126
     29 C          63.6933   84.6039   12.6494 C.ar    1  UNL1        0.0572
     30 C          64.4492   83.3303   12.4118 C.ar    1  UNL1        0.1235
     31 N          64.3894   83.0227   10.9449 N.ar    1  UNL1       -0.1634
     32 N          63.5966   84.1062   10.2759 N.ar    1  UNL1       -0.2281
     33 C          63.2109   84.3291    8.8436 C.ar    1  UNL1        0.1004
     34 C          62.3949   85.5294    8.4649 C.ar    1  UNL1        0.0207
     35 C          61.9647   86.5067    9.5183 C.ar    1  UNL1        0.0031
     36 C          62.3504   86.2837   10.9506 C.ar    1  UNL1        0.0193
     37 C          63.1664   85.0834   11.3294 C.ar    1  UNL1        0.0858
@<TRIPOS>BOND
     1    17    18    1
     2    18    16    1
     3    16     8    1
     4     8     9    2
     5     8    10   am
     6    10    11    1
     7    11    12    1
     8    12    13    1
     9    13     1    1
    10     1     2   ar
    11     2     3   ar
    12     3     4    1
    13     3     5   ar
    14     5    20    1
    15    20    22    1
    16    22    23   ar
    17    23    24   ar
    18    24    25   ar
    19    25    26    1
    20    25    27   ar
    21    27    29    1
    22    29    30   ar
    23    30    31   ar
    24    31    32   ar
    25    32    33   ar
    26    33    34   ar
    27    34    35   ar
    28    35    36   ar
    29    36    37   ar
    30    27    28   ar
    31     5     6   ar
    32     6     7    1
    33    13    14    1
    34    14    15    1
    35    15    10    1
    36     6     1   ar
    37    28    22   ar
    38    37    29   ar
    39    37    32   ar
    40    18    19    1
    41    20    21    1
@<TRIPOS>MOLECULE
*****
 37 41 0 0 0
SMALL
GASTEIGER

@<TRIPOS>ATOM
      1 N          62.7668   88.0177   12.2002 N.ar    1  UNL1       -0.2558
      2 N          63.3576   86.7758   12.7991 N.ar    1  UNL1       -0.1727
      3 C          64.1478   87.1756   14.0098 C.ar    1  UNL1        0.0935
      4 C          64.9071   86.2492   14.9126 C.3     1  UNL1        0.0553
      5 C          64.0454   88.6648   14.1591 C.ar    1  UNL1        0.0792
      6 C          63.1919   89.1851   13.0406 C.ar    1  UNL1        0.0704
      7 C          62.8276   90.6208   12.8043 C.3     1  UNL1        0.0531
      8 C          59.3102   88.2713    7.3025 C.2     1  UNL1        0.2418
      9 O          58.4537   87.0983    6.9274 O.2     1  UNL1       -0.2734
     10 N          60.1744   88.2079    8.5269 N.am    1  UNL1       -0.2783
     11 C          61.0309   89.3809    8.9019 C.3     1  UNL1        0.0954
     12 C          61.8950   89.3174   10.1264 C.3     1  UNL1        0.0459
     13 C          61.9027   88.0811   10.9758 C.3     1  UNL1        0.1083
     14 C          61.0462   86.9083   10.6008 C.3     1  UNL1        0.0459
     15 C          60.1820   86.9716    9.3763 C.3     1  UNL1        0.0954
     16 C          59.3026   89.5076    6.4531 C.3     1  UNL1        0.1552
     17 C          57.9782   91.3465    5.1826 C.3     1  UNL1        0.0862
     18 N          58.0096   90.0297    5.9002 N.3     1  UNL1       -0.2886
     19 H          57.6654   89.3286    5.2442 H       1  UNL1        0.1237
     20 N          64.6844   89.4887   15.2374 N.pl3   1  UNL1       -0.2806
     21 H          64.7106   89.1534   16.1627 H       1  UNL1        0.1551
     22 C          65.2835   90.8233   14.9060 C.ar    1  UNL1        0.2208
     23 N          65.2596   91.9286   15.9198 N.ar    1  UNL1       -0.2111
     24 C          65.8587   93.2632   15.5884 C.ar    1  UNL1        0.1147
     25 C          66.4817   93.4926   14.2433 C.ar    1  UNL1        0.0946
     26 CL         67.0808   94.8272   13.9119 Cl      1  UNL1       -0.0790
     27 C          66.5056   92.3872   13.2295 C.ar    1  UNL1        0.0992
     28 N          65.9065   91.0526   13.5609 N.ar    1  UNL1       -0.2126
     29 C          67.1286   92.6165   11.8844 C.ar    1  UNL1        0.0572
     30 C          68.2089   91.7843   11.2597 C.ar    1  UNL1        0.1235
     31 N          68.5286   92.3718    9.9171 N.ar    1  UNL1       -0.1634
     32 N          67.6458   93.5670    9.7120 N.ar    1  UNL1       -0.2281
     33 C          67.5180   94.5372    8.5751 C.ar    1  UNL1        0.1004
     34 C          66.5250   95.6586    8.6542 C.ar    1  UNL1        0.0207
     35 C          65.6597   95.8098    9.8701 C.ar    1  UNL1        0.0031
     36 C          65.7875   94.8397   11.0069 C.ar    1  UNL1        0.0193
     37 C          66.7805   93.7183   10.9279 C.ar    1  UNL1        0.0858
@<TRIPOS>BOND
     1    17    18    1
     2    18    16    1
     3    16     8    1
     4     8     9    2
     5     8    10   am
     6    10    11    1
     7    11    12    1
     8    12    13    1
     9    13     1    1
    10     1     2   ar
    11     2     3   ar
    12     3     4    1
    13     3     5   ar
    14     5    20    1
    15    20    22    1
    16    22    23   ar
    17    23    24   ar
    18    24    25   ar
    19    25    26    1
    20    25    27   ar
    21    27    29    1
    22    29    30   ar
    23    30    31   ar
    24    31    32   ar
    25    32    33   ar
    26    33    34   ar
    27    34    35   ar
    28    35    36   ar
    29    36    37   ar
    30    27    28   ar
    31     5     6   ar
    32     6     7    1
    33    13    14    1
    34    14    15    1
    35    15    10    1
    36     6     1   ar
    37    28    22   ar
    38    37    29   ar
    39    37    32   ar
    40    18    19    1
    41    20    21    1
@<TRIPOS>MOLECULE
*****
 37 41 0 0 0
SMALL
GASTEIGER

@<TRIPOS>ATOM
      1 N          62.5345   90.1293   11.2513 N.ar    1  UNL1       -0.2558
      2 N          61.6056   90.8214   10.2982 N.ar    1  UNL1       -0.1727
      3 C          60.9173   89.7716    9.4771 C.ar    1  UNL1        0.0935
      4 C          59.9036   90.0191    8.3996 C.3     1  UNL1        0.0553
      5 C          61.4208   88.4306    9.9228 C.ar    1  UNL1        0.0792
      6 C          62.4202   88.6518   11.0193 C.ar    1  UNL1        0.0704
      7 C          63.1732   87.5830   11.7545 C.3     1  UNL1        0.0531
      8 C          66.0837   92.8019   15.2837 C.2     1  UNL1        0.2418
      9 O          65.8628   92.5685   16.7489 O.2     1  UNL1       -0.2734
     10 N          65.1964   92.1337   14.2756 N.am    1  UNL1       -0.2783
     11 C          65.4174   92.3672   12.8104 C.3     1  UNL1        0.0954
     12 C          64.5300   91.6990   11.8023 C.3     1  UNL1        0.0459
     13 C          63.4218   90.7974   12.2594 C.3     1  UNL1        0.1083
     14 C          63.2009   90.5640   13.7245 C.3     1  UNL1        0.0459
     15 C          64.0881   91.2321   14.7326 C.3     1  UNL1        0.0954
     16 C          67.1920   93.7035   14.8266 C.3     1  UNL1        0.1552
     17 C          69.1183   92.4836   16.0719 C.3     1  UNL1        0.0862
     18 N          68.6133   93.2263   14.8705 N.3     1  UNL1       -0.2886
     19 H          68.7421   92.6102   14.0679 H       1  UNL1        0.1237
     20 N          60.9988   87.1020    9.3691 N.pl3   1  UNL1       -0.2806
     21 H          60.1754   87.0307    8.8341 H       1  UNL1        0.1551
     22 C          61.8313   85.8819    9.6305 C.ar    1  UNL1        0.2208
     23 N          62.6117   85.2532    8.5144 N.ar    1  UNL1       -0.2111
     24 C          63.4442   84.0331    8.7759 C.ar    1  UNL1        0.1147
     25 C          63.4962   83.4417   10.1534 C.ar    1  UNL1        0.0946
     26 CL         64.3286   82.2216   10.4148 Cl      1  UNL1       -0.0790
     27 C          62.7157   84.0704   11.2695 C.ar    1  UNL1        0.0992
     28 N          61.8833   85.2905   11.0080 N.ar    1  UNL1       -0.2126
     29 C          62.7677   83.4790   12.6470 C.ar    1  UNL1        0.0572
     30 C          62.3929   82.0748   13.0184 C.ar    1  UNL1        0.1235
     31 N          62.5972   81.9160   14.4959 N.ar    1  UNL1       -0.1634
     32 N          63.0982   83.2219   15.0377 N.ar    1  UNL1       -0.2281
     33 C          63.4720   83.6563   16.4239 C.ar    1  UNL1        0.1004
     34 C          63.9512   85.0566   16.6674 C.ar    1  UNL1        0.0207
     35 C          64.0566   86.0226   15.5247 C.ar    1  UNL1        0.0031
     36 C          63.6827   85.5883   14.1385 C.ar    1  UNL1        0.0193
     37 C          63.2035   84.1879   13.8950 C.ar    1  UNL1        0.0858
@<TRIPOS>BOND
     1    17    18    1
     2    18    16    1
     3    16     8    1
     4     8     9    2
     5     8    10   am
     6    10    11    1
     7    11    12    1
     8    12    13    1
     9    13     1    1
    10     1     2   ar
    11     2     3   ar
    12     3     4    1
    13     3     5   ar
    14     5    20    1
    15    20    22    1
    16    22    23   ar
    17    23    24   ar
    18    24    25   ar
    19    25    26    1
    20    25    27   ar
    21    27    29    1
    22    29    30   ar
    23    30    31   ar
    24    31    32   ar
    25    32    33   ar
    26    33    34   ar
    27    34    35   ar
    28    35    36   ar
    29    36    37   ar
    30    27    28   ar
    31     5     6   ar
    32     6     7    1
    33    13    14    1
    34    14    15    1
    35    15    10    1
    36     6     1   ar
    37    28    22   ar
    38    37    29   ar
    39    37    32   ar
    40    18    19    1
    41    20    21    1
@<TRIPOS>MOLECULE
*****
 37 41 0 0 0
SMALL
GASTEIGER

@<TRIPOS>ATOM
      1 N          62.5591   93.7654    1.4734 N.ar    1  UNL1       -0.2558
      2 N          63.4792   94.9066    1.7913 N.ar    1  UNL1       -0.1727
      3 C          64.1728   95.3097    0.5238 C.ar    1  UNL1        0.0935
      4 C          65.1809   96.4114    0.3824 C.3     1  UNL1        0.0553
      5 C          63.6813   94.4176   -0.5774 C.ar    1  UNL1        0.0792
      6 C          62.6839   93.4632    0.0096 C.ar    1  UNL1        0.0704
      7 C          61.9419   92.3943   -0.7365 C.3     1  UNL1        0.0531
      8 C          59.0033   90.9106    5.3730 C.2     1  UNL1        0.2418
      9 O          57.5546   91.2847    5.4799 O.2     1  UNL1       -0.2734
     10 N          59.8922   91.6243    4.3981 N.am    1  UNL1       -0.2783
     11 C          61.3409   91.2502    4.2912 C.3     1  UNL1        0.0954
     12 C          62.2298   91.9639    3.3163 C.3     1  UNL1        0.0459
     13 C          61.6701   93.0517    2.4483 C.3     1  UNL1        0.1083
     14 C          60.2215   93.4258    2.5552 C.3     1  UNL1        0.0459
     15 C          59.3325   92.7121    3.5301 C.3     1  UNL1        0.0954
     16 C          59.5630   89.8228    6.2410 C.3     1  UNL1        0.1552
     17 C          59.1833   87.8039    7.8315 C.3     1  UNL1        0.0862
     18 N          58.6469   88.8027    6.8493 N.3     1  UNL1       -0.2886
     19 H          57.9081   89.3183    7.3275 H       1  UNL1        0.1237
     20 N          64.1116   94.4707   -2.0133 N.pl3   1  UNL1       -0.2806
     21 H          65.0693   94.4558   -2.2411 H       1  UNL1        0.1551
     22 C          63.0829   94.5464   -3.1023 C.ar    1  UNL1        0.2208
     23 N          63.4563   94.1968   -4.5124 N.ar    1  UNL1       -0.2111
     24 C          62.4276   94.2725   -5.6014 C.ar    1  UNL1        0.1147
     25 C          61.0254   94.6979   -5.2804 C.ar    1  UNL1        0.0946
     26 CL         59.9967   94.7736   -6.3694 Cl      1  UNL1       -0.0790
     27 C          60.6520   95.0475   -3.8702 C.ar    1  UNL1        0.0992
     28 N          61.6807   94.9718   -2.7813 N.ar    1  UNL1       -0.2126
     29 C          59.2498   95.4728   -3.5491 C.ar    1  UNL1        0.0572
     30 C          58.6897   96.8552   -3.7078 C.ar    1  UNL1        0.1235
     31 N          57.2553   96.8272   -3.2697 N.ar    1  UNL1       -0.1634
     32 N          56.9290   95.4274   -2.8404 N.ar    1  UNL1       -0.2281
     33 C          55.6687   94.8069   -2.3145 C.ar    1  UNL1        0.1004
     34 C          55.6412   93.3494   -1.9613 C.ar    1  UNL1        0.0207
     35 C          56.8739   92.5124   -2.1340 C.ar    1  UNL1        0.0031
     36 C          58.1342   93.1329   -2.6599 C.ar    1  UNL1        0.0193
     37 C          58.1617   94.5904   -3.0131 C.ar    1  UNL1        0.0858
@<TRIPOS>BOND
     1    17    18    1
     2    18    16    1
     3    16     8    1
     4     8     9    2
     5     8    10   am
     6    10    11    1
     7    11    12    1
     8    12    13    1
     9    13     1    1
    10     1     2   ar
    11     2     3   ar
    12     3     4    1
    13     3     5   ar
    14     5    20    1
    15    20    22    1
    16    22    23   ar
    17    23    24   ar
    18    24    25   ar
    19    25    26    1
    20    25    27   ar
    21    27    29    1
    22    29    30   ar
    23    30    31   ar
    24    31    32   ar
    25    32    33   ar
    26    33    34   ar
    27    34    35   ar
    28    35    36   ar
    29    36    37   ar
    30    27    28   ar
    31     5     6   ar
    32     6     7    1
    33    13    14    1
    34    14    15    1
    35    15    10    1
    36     6     1   ar
    37    28    22   ar
    38    37    29   ar
    39    37    32   ar
    40    18    19    1
    41    20    21    1
