@<TRIPOS>MOLECULE
*****
 30 33 0 0 0
SMALL
GASTEIGER

@<TRIPOS>ATOM
      1 N          62.4887   87.0837   11.9753 N.ar    1  UNL1       -0.2644
      2 C          62.1844   87.8796   10.7407 C.ar    1  UNL1        0.2037
      3 N          62.6931   89.2846   10.6098 N.ar    1  UNL1       -0.2140
      4 C          63.5060   89.8938   11.7135 C.ar    1  UNL1        0.0992
      5 C          64.0147   91.2988   11.5826 C.ar    1  UNL1        0.0755
      6 CL         63.7105   92.0946   10.3480 Cl      1  UNL1       -0.0807
      7 C          64.8276   91.9080   12.6862 C.ar    1  UNL1        0.0129
      8 C          65.1318   91.1122   13.9208 C.ar    1  UNL1        0.0011
      9 C          64.6231   89.7072   14.0517 C.ar    1  UNL1        0.0063
     10 C          63.8102   89.0980   12.9481 C.ar    1  UNL1        0.0748
     11 C          63.3015   87.6929   13.0789 C.ar    1  UNL1        0.2645
     12 O          63.6057   86.8971   14.3135 O.2     1  UNL1       -0.2668
     13 N          61.3715   87.2703    9.6370 N.pl3   1  UNL1       -0.2781
     14 C          59.9146   87.6027    9.5073 C.3     1  UNL1        0.0937
     15 C          59.1018   86.9934    8.4037 C.3     1  UNL1        0.0229
     16 C          59.7458   86.0518    7.4298 C.3     1  UNL1        0.0190
     17 C          61.2028   85.7194    7.5595 C.3     1  UNL1        0.0710
     18 N          61.8468   84.7778    6.5856 N.3     1  UNL1       -0.3208
     19 C          62.0156   86.3287    8.6631 C.3     1  UNL1        0.1089
     20 H          61.1527   84.4619    5.9083 H       1  UNL1        0.1189
     21 H          62.2223   83.9734    7.0880 H       1  UNL1        0.1189
     22 C          61.9799   85.6787   12.1062 C.3     1  UNL1        0.1391
     23 C          63.3085   83.5919   12.9000 C.ar    1  UNL1        0.0663
     24 C          64.2138   82.4352   12.5957 C.ar    1  UNL1        0.0100
     25 C          64.6956   82.2085   11.1934 C.ar    1  UNL1        0.0007
     26 C          64.2722   83.1385   10.0953 C.ar    1  UNL1       -0.0002
     27 C          63.3670   84.2952   10.3996 C.ar    1  UNL1       -0.0017
     28 C          62.8851   84.5219   11.8019 C.ar    1  UNL1        0.0102
     29 N          62.3449   84.0453   15.7046 N.1     1  UNL1       -0.1908
     30 C          62.8267   83.8186   14.3022 C.1     1  UNL1        0.1002
@<TRIPOS>BOND
     1    29    30    3
     2    30    23    1
     3    23    24   ar
     4    24    25   ar
     5    25    26   ar
     6    26    27   ar
     7    27    28   ar
     8    28    22    1
     9    22     1    1
    10     1     2   ar
    11     2    13    1
    12    13    14    1
    13    14    15    1
    14    15    16    1
    15    16    17    1
    16    17    18    1
    17    17    19    1
    18     2     3   ar
    19     3     4   ar
    20     4     5   ar
    21     5     6    1
    22     5     7   ar
    23     7     8   ar
    24     8     9   ar
    25     9    10   ar
    26    10    11   ar
    27    11    12    2
    28    28    23   ar
    29    11     1   ar
    30    19    13    1
    31    10     4   ar
    32    18    20    1
    33    18    21    1
@<TRIPOS>MOLECULE
*****
 30 33 0 0 0
SMALL
GASTEIGER

@<TRIPOS>ATOM
      1 N          63.2120   89.9787   12.7583 N.ar    1  UNL1       -0.2644
      2 C          64.1620   89.7733   13.9008 C.ar    1  UNL1        0.2037
      3 N          65.4030   90.6095   14.0039 N.ar    1  UNL1       -0.2140
      4 C          65.6941   91.6511   12.9644 C.ar    1  UNL1        0.0992
      5 C          66.9351   92.4872   13.0675 C.ar    1  UNL1        0.0755
      6 CL         67.8851   92.2818   14.2100 Cl      1  UNL1       -0.0807
      7 C          67.2262   93.5287   12.0281 C.ar    1  UNL1        0.0129
      8 C          66.2762   93.7341   10.8856 C.ar    1  UNL1        0.0011
      9 C          65.0351   92.8980   10.7825 C.ar    1  UNL1        0.0063
     10 C          64.7441   91.8565   11.8219 C.ar    1  UNL1        0.0748
     11 C          63.5030   91.0203   11.7189 C.ar    1  UNL1        0.2645
     12 O          62.5530   91.2257   10.5764 O.2     1  UNL1       -0.2668
     13 N          63.8709   88.7317   14.9403 N.pl3   1  UNL1       -0.2781
     14 C          63.1759   89.1158   16.2129 C.3     1  UNL1        0.0937
     15 C          62.8848   88.0742   17.2522 C.3     1  UNL1        0.0229
     16 C          63.2887   86.6486   17.0190 C.3     1  UNL1        0.0190
     17 C          63.9837   86.2645   15.7465 C.3     1  UNL1        0.0710
     18 N          64.3876   84.8388   15.5133 N.3     1  UNL1       -0.3208
     19 C          64.2748   87.3061   14.7071 C.3     1  UNL1        0.1089
     20 H          64.1142   84.2723   16.3162 H       1  UNL1        0.1189
     21 H          65.3988   84.7878   15.3897 H       1  UNL1        0.1189
     22 C          61.9709   89.1425   12.6553 C.3     1  UNL1        0.1391
     23 C          60.4703   88.9142   10.5467 C.ar    1  UNL1        0.0663
     24 C          60.1369   88.2223    9.2582 C.ar    1  UNL1        0.0100
     25 C          60.9709   87.0669    8.7898 C.ar    1  UNL1        0.0007
     26 C          62.1383   86.6033    9.6098 C.ar    1  UNL1       -0.0002
     27 C          62.4716   87.2952   10.8983 C.ar    1  UNL1       -0.0017
     28 C          61.6376   88.4507   11.3668 C.ar    1  UNL1        0.0102
     29 N          58.8023   91.2251   11.4837 N.1     1  UNL1       -0.1908
     30 C          59.6363   90.0696   11.0152 C.1     1  UNL1        0.1002
@<TRIPOS>BOND
     1    29    30    3
     2    30    23    1
     3    23    24   ar
     4    24    25   ar
     5    25    26   ar
     6    26    27   ar
     7    27    28   ar
     8    28    22    1
     9    22     1    1
    10     1     2   ar
    11     2    13    1
    12    13    14    1
    13    14    15    1
    14    15    16    1
    15    16    17    1
    16    17    18    1
    17    17    19    1
    18     2     3   ar
    19     3     4   ar
    20     4     5   ar
    21     5     6    1
    22     5     7   ar
    23     7     8   ar
    24     8     9   ar
    25     9    10   ar
    26    10    11   ar
    27    11    12    2
    28    28    23   ar
    29    11     1   ar
    30    19    13    1
    31    10     4   ar
    32    18    20    1
    33    18    21    1
@<TRIPOS>MOLECULE
*****
 30 33 0 0 0
SMALL
GASTEIGER

@<TRIPOS>ATOM
      1 N          63.8691   89.5763   12.9659 N.ar    1  UNL1       -0.2644
      2 C          64.3241   89.5240   14.3943 C.ar    1  UNL1        0.2037
      3 N          65.1501   90.6410   14.9597 N.ar    1  UNL1       -0.2140
      4 C          65.5212   91.8105   14.0968 C.ar    1  UNL1        0.0992
      5 C          66.3473   92.9276   14.6622 C.ar    1  UNL1        0.0755
      6 CL         66.8023   92.8752   16.0906 Cl      1  UNL1       -0.0807
      7 C          66.7183   94.0970   13.7993 C.ar    1  UNL1        0.0129
      8 C          66.2633   94.1494   12.3709 C.ar    1  UNL1        0.0011
      9 C          65.4373   93.0323   11.8055 C.ar    1  UNL1        0.0063
     10 C          65.0662   91.8629   12.6684 C.ar    1  UNL1        0.0748
     11 C          64.2402   90.7457   12.1030 C.ar    1  UNL1        0.2645
     12 O          63.7852   90.7981   10.6746 O.2     1  UNL1       -0.2668
     13 N          63.9530   88.3544   15.2572 N.pl3   1  UNL1       -0.2781
     14 C          63.1385   88.5670   16.4987 C.3     1  UNL1        0.0937
     15 C          62.7675   87.3975   17.3616 C.3     1  UNL1        0.0229
     16 C          63.2109   86.0155   16.9829 C.3     1  UNL1        0.0190
     17 C          64.0253   85.8029   15.7414 C.3     1  UNL1        0.0710
     18 N          64.4687   84.4209   15.3627 N.3     1  UNL1       -0.3208
     19 C          64.3964   86.9724   14.8785 C.3     1  UNL1        0.1089
     20 H          64.1304   83.7534   16.0559 H       1  UNL1        0.1189
     21 H          65.4876   84.3882   15.3282 H       1  UNL1        0.1189
     22 C          63.0430   88.4592   12.4005 C.3     1  UNL1        0.1391
     23 C          61.5249   87.7415   10.4180 C.ar    1  UNL1        0.0663
     24 C          60.4118   88.0430    9.4588 C.ar    1  UNL1        0.0100
     25 C          59.7038   89.3638    9.5228 C.ar    1  UNL1        0.0007
     26 C          60.1088   90.3831   10.5461 C.ar    1  UNL1       -0.0002
     27 C          61.2219   90.0816   11.5053 C.ar    1  UNL1       -0.0017
     28 C          61.9299   88.7607   11.4412 C.ar    1  UNL1        0.0102
     29 N          62.9410   85.0998   10.2900 N.1     1  UNL1       -0.1908
     30 C          62.2330   86.4207   10.3540 C.1     1  UNL1        0.1002
@<TRIPOS>BOND
     1    29    30    3
     2    30    23    1
     3    23    24   ar
     4    24    25   ar
     5    25    26   ar
     6    26    27   ar
     7    27    28   ar
     8    28    22    1
     9    22     1    1
    10     1     2   ar
    11     2    13    1
    12    13    14    1
    13    14    15    1
    14    15    16    1
    15    16    17    1
    16    17    18    1
    17    17    19    1
    18     2     3   ar
    19     3     4   ar
    20     4     5   ar
    21     5     6    1
    22     5     7   ar
    23     7     8   ar
    24     8     9   ar
    25     9    10   ar
    26    10    11   ar
    27    11    12    2
    28    28    23   ar
    29    11     1   ar
    30    19    13    1
    31    10     4   ar
    32    18    20    1
    33    18    21    1
@<TRIPOS>MOLECULE
*****
 30 33 0 0 0
SMALL
GASTEIGER

@<TRIPOS>ATOM
      1 N          62.8100   86.7743   11.4627 N.ar    1  UNL1       -0.2644
      2 C          62.5104   85.4723   10.7809 C.ar    1  UNL1        0.2037
      3 N          62.7494   84.1772   11.4990 N.ar    1  UNL1       -0.2140
      4 C          63.2882   84.1842   12.8990 C.ar    1  UNL1        0.0992
      5 C          63.5273   82.8892   13.6171 C.ar    1  UNL1        0.0755
      6 CL         63.2276   81.5871   12.9353 Cl      1  UNL1       -0.0807
      7 C          64.0660   82.8963   15.0169 C.ar    1  UNL1        0.0129
      8 C          64.3656   84.1983   15.6987 C.ar    1  UNL1        0.0011
      9 C          64.1265   85.4934   14.9806 C.ar    1  UNL1        0.0063
     10 C          63.5878   85.4863   13.5808 C.ar    1  UNL1        0.0748
     11 C          63.3487   86.7814   12.8626 C.ar    1  UNL1        0.2645
     12 O          63.6483   88.0835   13.5444 O.2     1  UNL1       -0.2668
     13 N          61.9716   85.4653    9.3810 N.pl3   1  UNL1       -0.2781
     14 C          62.8047   84.9192    8.2595 C.3     1  UNL1        0.0937
     15 C          62.2659   84.9122    6.8596 C.3     1  UNL1        0.0229
     16 C          60.8941   85.4513    6.5813 C.3     1  UNL1        0.0190
     17 C          60.0610   85.9974    7.7028 C.3     1  UNL1        0.0710
     18 N          58.6892   86.5365    7.4244 N.3     1  UNL1       -0.3208
     19 C          60.5998   86.0044    9.1026 C.3     1  UNL1        0.1089
     20 H          58.4872   86.4540    6.4280 H       1  UNL1        0.1189
     21 H          58.6472   87.5177    7.6997 H       1  UNL1        0.1189
     22 C          62.5709   88.0694   10.7446 C.3     1  UNL1        0.1391
     23 C          61.4513   90.3992   11.0065 C.ar    1  UNL1        0.0663
     24 C          60.2508   91.2330   11.3434 C.ar    1  UNL1        0.0100
     25 C          58.9694   90.5709   11.7552 C.ar    1  UNL1        0.0007
     26 C          58.8884   89.0750   11.8302 C.ar    1  UNL1       -0.0002
     27 C          60.0889   88.2411   11.4933 C.ar    1  UNL1       -0.0017
     28 C          61.3704   88.9033   11.0814 C.ar    1  UNL1        0.0102
     29 N          64.0141   91.7234   10.1828 N.1     1  UNL1       -0.1908
     30 C          62.7326   91.0612   10.5946 C.1     1  UNL1        0.1002
@<TRIPOS>BOND
     1    29    30    3
     2    30    23    1
     3    23    24   ar
     4    24    25   ar
     5    25    26   ar
     6    26    27   ar
     7    27    28   ar
     8    28    22    1
     9    22     1    1
    10     1     2   ar
    11     2    13    1
    12    13    14    1
    13    14    15    1
    14    15    16    1
    15    16    17    1
    16    17    18    1
    17    17    19    1
    18     2     3   ar
    19     3     4   ar
    20     4     5   ar
    21     5     6    1
    22     5     7   ar
    23     7     8   ar
    24     8     9   ar
    25     9    10   ar
    26    10    11   ar
    27    11    12    2
    28    28    23   ar
    29    11     1   ar
    30    19    13    1
    31    10     4   ar
    32    18    20    1
    33    18    21    1
@<TRIPOS>MOLECULE
*****
 30 33 0 0 0
SMALL
GASTEIGER

@<TRIPOS>ATOM
      1 N          63.1925   86.7861   12.3750 N.ar    1  UNL1       -0.2644
      2 C          62.6718   85.5571   11.6905 C.ar    1  UNL1        0.2037
      3 N          61.7333   85.6869   10.5277 N.ar    1  UNL1       -0.2140
      4 C          61.3153   87.0457   10.0492 C.ar    1  UNL1        0.0992
      5 C          60.3768   87.1756    8.8864 C.ar    1  UNL1        0.0755
      6 CL         59.8561   85.9465    8.2020 Cl      1  UNL1       -0.0807
      7 C          59.9589   88.5344    8.4080 C.ar    1  UNL1        0.0129
      8 C          60.4796   89.7634    9.0924 C.ar    1  UNL1        0.0011
      9 C          61.4181   89.6336   10.2553 C.ar    1  UNL1        0.0063
     10 C          61.8360   88.2748   10.7337 C.ar    1  UNL1        0.0748
     11 C          62.7746   88.1449   11.8966 C.ar    1  UNL1        0.2645
     12 O          63.2953   89.3739   12.5810 O.2     1  UNL1       -0.2668
     13 N          63.0898   84.1982   12.1690 N.pl3   1  UNL1       -0.2781
     14 C          64.2982   83.5340   11.5786 C.3     1  UNL1        0.0937
     15 C          64.7160   82.1752   12.0570 C.3     1  UNL1        0.0229
     16 C          63.9255   81.4806   13.1259 C.3     1  UNL1        0.0190
     17 C          62.7171   82.1447   13.7164 C.3     1  UNL1        0.0710
     18 N          61.9266   81.4501   14.7853 N.3     1  UNL1       -0.3208
     19 C          62.2993   83.5035   13.2379 C.3     1  UNL1        0.1089
     20 H          62.3494   80.5438   14.9861 H       1  UNL1        0.1189
     21 H          60.9677   81.3144   14.4651 H       1  UNL1        0.1189
     22 C          64.1311   86.6562   13.5379 C.3     1  UNL1        0.1391
     23 C          63.6882   87.9337   15.7564 C.ar    1  UNL1        0.0663
     24 C          63.1537   87.9567   17.1577 C.ar    1  UNL1        0.0100
     25 C          62.5277   86.7251   17.7419 C.ar    1  UNL1        0.0007
     26 C          62.4360   85.4705   16.9248 C.ar    1  UNL1       -0.0002
     27 C          62.9705   85.4476   15.5234 C.ar    1  UNL1       -0.0017
     28 C          63.5966   86.6792   14.9392 C.ar    1  UNL1        0.0102
     29 N          64.9404   90.3968   14.5879 N.1     1  UNL1       -0.1908
     30 C          64.3143   89.1652   15.1722 C.1     1  UNL1        0.1002
@<TRIPOS>BOND
     1    29    30    3
     2    30    23    1
     3    23    24   ar
     4    24    25   ar
     5    25    26   ar
     6    26    27   ar
     7    27    28   ar
     8    28    22    1
     9    22     1    1
    10     1     2   ar
    11     2    13    1
    12    13    14    1
    13    14    15    1
    14    15    16    1
    15    16    17    1
    16    17    18    1
    17    17    19    1
    18     2     3   ar
    19     3     4   ar
    20     4     5   ar
    21     5     6    1
    22     5     7   ar
    23     7     8   ar
    24     8     9   ar
    25     9    10   ar
    26    10    11   ar
    27    11    12    2
    28    28    23   ar
    29    11     1   ar
    30    19    13    1
    31    10     4   ar
    32    18    20    1
    33    18    21    1
@<TRIPOS>MOLECULE
*****
 30 33 0 0 0
SMALL
GASTEIGER

@<TRIPOS>ATOM
      1 N          62.0137   86.9683   11.1284 N.ar    1  UNL1       -0.2644
      2 C          62.7422   86.5359   12.3663 C.ar    1  UNL1        0.2037
      3 N          63.5305   87.5350   13.1602 N.ar    1  UNL1       -0.2140
      4 C          63.5902   88.9667   12.7163 C.ar    1  UNL1        0.0992
      5 C          64.3785   89.9658   13.5102 C.ar    1  UNL1        0.0755
      6 CL         65.1070   89.5334   14.7481 Cl      1  UNL1       -0.0807
      7 C          64.4382   91.3973   13.0663 C.ar    1  UNL1        0.0129
      8 C          63.7097   91.8297   11.8284 C.ar    1  UNL1        0.0011
      9 C          62.9215   90.8306   11.0345 C.ar    1  UNL1        0.0063
     10 C          62.8617   89.3991   11.4784 C.ar    1  UNL1        0.0748
     11 C          62.0735   88.3998   10.6845 C.ar    1  UNL1        0.2645
     12 O          61.3450   88.8322    9.4466 O.2     1  UNL1       -0.2668
     13 N          62.6825   85.1043   12.8102 N.pl3   1  UNL1       -0.2781
     14 C          62.3867   84.7752   14.2434 C.3     1  UNL1        0.0937
     15 C          62.3269   83.3437   14.6872 C.3     1  UNL1        0.0229
     16 C          62.5630   82.2412   13.6979 C.3     1  UNL1        0.0190
     17 C          62.8588   82.5703   12.2647 C.3     1  UNL1        0.0710
     18 N          63.0949   81.4678   11.2753 N.3     1  UNL1       -0.3208
     19 C          62.9186   84.0018   11.8208 C.3     1  UNL1        0.1089
     20 H          63.0168   80.5662   11.7459 H       1  UNL1        0.1189
     21 H          64.0287   81.5633   10.8763 H       1  UNL1        0.1189
     22 C          61.2255   85.9691   10.3345 C.3     1  UNL1        0.1391
     23 C          60.8606   85.7334    7.7730 C.ar    1  UNL1        0.0663
     24 C          61.3510   85.2907    6.4263 C.ar    1  UNL1        0.0100
     25 C          62.6965   84.6411    6.2944 C.ar    1  UNL1        0.0007
     26 C          63.5518   84.4341    7.5092 C.ar    1  UNL1       -0.0002
     27 C          63.0615   84.8768    8.8559 C.ar    1  UNL1       -0.0017
     28 C          61.7158   85.5264    8.9878 C.ar    1  UNL1        0.0102
     29 N          58.1694   87.0326    8.0368 N.1     1  UNL1       -0.1908
     30 C          59.5151   86.3830    7.9049 C.1     1  UNL1        0.1002
@<TRIPOS>BOND
     1    29    30    3
     2    30    23    1
     3    23    24   ar
     4    24    25   ar
     5    25    26   ar
     6    26    27   ar
     7    27    28   ar
     8    28    22    1
     9    22     1    1
    10     1     2   ar
    11     2    13    1
    12    13    14    1
    13    14    15    1
    14    15    16    1
    15    16    17    1
    16    17    18    1
    17    17    19    1
    18     2     3   ar
    19     3     4   ar
    20     4     5   ar
    21     5     6    1
    22     5     7   ar
    23     7     8   ar
    24     8     9   ar
    25     9    10   ar
    26    10    11   ar
    27    11    12    2
    28    28    23   ar
    29    11     1   ar
    30    19    13    1
    31    10     4   ar
    32    18    20    1
    33    18    21    1
@<TRIPOS>MOLECULE
*****
 30 33 0 0 0
SMALL
GASTEIGER

@<TRIPOS>ATOM
      1 N          62.2329   87.0457   11.7454 N.ar    1  UNL1       -0.2644
      2 C          61.9193   88.1580   10.7892 C.ar    1  UNL1        0.2037
      3 N          62.5036   89.5221   11.0080 N.ar    1  UNL1       -0.2140
      4 C          63.4015   89.7738   12.1829 C.ar    1  UNL1        0.0992
      5 C          63.9858   91.1379   12.4016 C.ar    1  UNL1        0.0755
      6 CL         63.6722   92.2503   11.4455 Cl      1  UNL1       -0.0807
      7 C          64.8836   91.3896   13.5765 C.ar    1  UNL1        0.0129
      8 C          65.1972   90.2772   14.5327 C.ar    1  UNL1        0.0011
      9 C          64.6129   88.9131   14.3140 C.ar    1  UNL1        0.0063
     10 C          63.7151   88.6615   13.1391 C.ar    1  UNL1        0.0748
     11 C          63.1307   87.2973   12.9203 C.ar    1  UNL1        0.2645
     12 O          63.4443   86.1850   13.8765 O.2     1  UNL1       -0.2668
     13 N          61.0213   87.9063    9.6143 N.pl3   1  UNL1       -0.2781
     14 C          60.5589   86.5125    9.3088 C.3     1  UNL1        0.0937
     15 C          59.6610   86.2608    8.1339 C.3     1  UNL1        0.0229
     16 C          59.2256   87.4029    7.2645 C.3     1  UNL1        0.0190
     17 C          59.6880   88.7968    7.5700 C.3     1  UNL1        0.0710
     18 N          59.2526   89.9389    6.7005 N.3     1  UNL1       -0.3208
     19 C          60.5859   89.0484    8.7449 C.3     1  UNL1        0.1089
     20 H          58.6504   89.5887    5.9555 H       1  UNL1        0.1189
     21 H          60.0727   90.3874    6.2923 H       1  UNL1        0.1189
     22 C          61.6485   85.6815   11.5266 C.3     1  UNL1        0.1391
     23 C          63.3401   83.9584   10.5678 C.ar    1  UNL1        0.0663
     24 C          64.1947   82.7388   10.7474 C.ar    1  UNL1        0.0100
     25 C          64.2124   82.0228   12.0653 C.ar    1  UNL1        0.0007
     26 C          63.3754   82.5263   13.2037 C.ar    1  UNL1       -0.0002
     27 C          62.5208   83.7459   13.0242 C.ar    1  UNL1       -0.0017
     28 C          62.5031   84.4619   11.7062 C.ar    1  UNL1        0.0102
     29 N          63.3047   85.3905    7.9319 N.1     1  UNL1       -0.1908
     30 C          63.3224   84.6744    9.2499 C.1     1  UNL1        0.1002
@<TRIPOS>BOND
     1    29    30    3
     2    30    23    1
     3    23    24   ar
     4    24    25   ar
     5    25    26   ar
     6    26    27   ar
     7    27    28   ar
     8    28    22    1
     9    22     1    1
    10     1     2   ar
    11     2    13    1
    12    13    14    1
    13    14    15    1
    14    15    16    1
    15    16    17    1
    16    17    18    1
    17    17    19    1
    18     2     3   ar
    19     3     4   ar
    20     4     5   ar
    21     5     6    1
    22     5     7   ar
    23     7     8   ar
    24     8     9   ar
    25     9    10   ar
    26    10    11   ar
    27    11    12    2
    28    28    23   ar
    29    11     1   ar
    30    19    13    1
    31    10     4   ar
    32    18    20    1
    33    18    21    1
@<TRIPOS>MOLECULE
*****
 30 33 0 0 0
SMALL
GASTEIGER

@<TRIPOS>ATOM
      1 N          62.6513   86.6459   11.8265 N.ar    1  UNL1       -0.2644
      2 C          62.3787   87.4317   10.5782 C.ar    1  UNL1        0.2037
      3 N          62.7481   88.8839   10.5104 N.ar    1  UNL1       -0.2140
      4 C          63.3900   89.5504   11.6910 C.ar    1  UNL1        0.0992
      5 C          63.7594   91.0026   11.6233 C.ar    1  UNL1        0.0755
      6 CL         63.4868   91.7884   10.3750 Cl      1  UNL1       -0.0807
      7 C          64.4013   91.6691   12.8039 C.ar    1  UNL1        0.0129
      8 C          64.6738   90.8833   14.0522 C.ar    1  UNL1        0.0011
      9 C          64.3045   89.4311   14.1199 C.ar    1  UNL1        0.0063
     10 C          63.6626   88.7647   12.9394 C.ar    1  UNL1        0.0748
     11 C          63.2932   87.3124   13.0070 C.ar    1  UNL1        0.2645
     12 O          63.5657   86.5266   14.2553 O.2     1  UNL1       -0.2668
     13 N          61.7368   86.7652    9.3976 N.pl3   1  UNL1       -0.2781
     14 C          62.5366   85.8343    8.5353 C.3     1  UNL1        0.0937
     15 C          61.8947   85.1678    7.3548 C.3     1  UNL1        0.0229
     16 C          60.4529   85.4323    7.0365 C.3     1  UNL1        0.0190
     17 C          59.6530   86.3633    7.8987 C.3     1  UNL1        0.0710
     18 N          58.2113   86.6278    7.5805 N.3     1  UNL1       -0.3208
     19 C          60.2950   87.0298    9.0793 C.3     1  UNL1        0.1089
     20 H          57.9429   86.0965    6.7522 H       1  UNL1        0.1189
     21 H          58.0794   87.6236    7.4031 H       1  UNL1        0.1189
     22 C          62.2819   85.1937   11.8942 C.3     1  UNL1        0.1391
     23 C          63.8124   83.2832   12.7647 C.ar    1  UNL1        0.0663
     24 C          64.3144   82.4335   13.8943 C.ar    1  UNL1        0.0100
     25 C          63.7881   82.6446   15.2829 C.ar    1  UNL1        0.0007
     26 C          62.7596   83.7054   15.5420 C.ar    1  UNL1       -0.0002
     27 C          62.2575   84.5551   14.4125 C.ar    1  UNL1       -0.0017
     28 C          62.7840   84.3440   13.0238 C.ar    1  UNL1        0.0102
     29 N          64.8651   82.8611    9.9874 N.1     1  UNL1       -0.1908
     30 C          64.3387   83.0722   11.3761 C.1     1  UNL1        0.1002
@<TRIPOS>BOND
     1    29    30    3
     2    30    23    1
     3    23    24   ar
     4    24    25   ar
     5    25    26   ar
     6    26    27   ar
     7    27    28   ar
     8    28    22    1
     9    22     1    1
    10     1     2   ar
    11     2    13    1
    12    13    14    1
    13    14    15    1
    14    15    16    1
    15    16    17    1
    16    17    18    1
    17    17    19    1
    18     2     3   ar
    19     3     4   ar
    20     4     5   ar
    21     5     6    1
    22     5     7   ar
    23     7     8   ar
    24     8     9   ar
    25     9    10   ar
    26    10    11   ar
    27    11    12    2
    28    28    23   ar
    29    11     1   ar
    30    19    13    1
    31    10     4   ar
    32    18    20    1
    33    18    21    1
@<TRIPOS>MOLECULE
*****
 30 33 0 0 0
SMALL
GASTEIGER

@<TRIPOS>ATOM
      1 N          63.2144   88.7176   13.2344 N.ar    1  UNL1       -0.2644
      2 C          62.4076   87.9955   12.1962 C.ar    1  UNL1        0.2037
      3 N          62.5242   86.5065   12.0576 N.ar    1  UNL1       -0.2140
      4 C          63.4476   85.7395   12.9572 C.ar    1  UNL1        0.0992
      5 C          63.5641   84.2505   12.8186 C.ar    1  UNL1        0.0755
      6 CL         62.7573   83.5284   11.7805 Cl      1  UNL1       -0.0807
      7 C          64.4874   83.4836   13.7182 C.ar    1  UNL1        0.0129
      8 C          65.2942   84.2056   14.7563 C.ar    1  UNL1        0.0011
      9 C          65.1777   85.6946   14.8949 C.ar    1  UNL1        0.0063
     10 C          64.2543   86.4615   13.9953 C.ar    1  UNL1        0.0748
     11 C          64.1377   87.9506   14.1339 C.ar    1  UNL1        0.2645
     12 O          64.9445   88.6727   15.1720 O.2     1  UNL1       -0.2668
     13 N          61.4843   88.7625   11.2966 N.pl3   1  UNL1       -0.2781
     14 C          61.5316   88.5463    9.8131 C.3     1  UNL1        0.0937
     15 C          60.6083   89.3133    8.9136 C.3     1  UNL1        0.0229
     16 C          59.6376   90.2965    9.4977 C.3     1  UNL1        0.0190
     17 C          59.5903   90.5127   10.9812 C.3     1  UNL1        0.0710
     18 N          58.6196   91.4959   11.5653 N.3     1  UNL1       -0.3208
     19 C          60.5136   89.7457   11.8807 C.3     1  UNL1        0.1089
     20 H          58.0753   91.9226   10.8156 H       1  UNL1        0.1189
     21 H          59.1312   92.2205   12.0689 H       1  UNL1        0.1189
     22 C          63.0978   90.2066   13.3729 C.3     1  UNL1        0.1391
     23 C          64.9526   92.0176   13.1987 C.ar    1  UNL1        0.0663
     24 C          65.8145   92.9182   12.3645 C.ar    1  UNL1        0.0100
     25 C          65.6837   92.9085   10.8703 C.ar    1  UNL1        0.0007
     26 C          64.6909   91.9981   10.2102 C.ar    1  UNL1       -0.0002
     27 C          63.8289   91.0975   11.0444 C.ar    1  UNL1       -0.0017
     28 C          63.9598   91.1073   12.5387 C.ar    1  UNL1        0.0102
     29 N          65.2141   92.0371   16.1872 N.1     1  UNL1       -0.1908
     30 C          65.0834   92.0273   14.6929 C.1     1  UNL1        0.1002
@<TRIPOS>BOND
     1    29    30    3
     2    30    23    1
     3    23    24   ar
     4    24    25   ar
     5    25    26   ar
     6    26    27   ar
     7    27    28   ar
     8    28    22    1
     9    22     1    1
    10     1     2   ar
    11     2    13    1
    12    13    14    1
    13    14    15    1
    14    15    16    1
    15    16    17    1
    16    17    18    1
    17    17    19    1
    18     2     3   ar
    19     3     4   ar
    20     4     5   ar
    21     5     6    1
    22     5     7   ar
    23     7     8   ar
    24     8     9   ar
    25     9    10   ar
    26    10    11   ar
    27    11    12    2
    28    28    23   ar
    29    11     1   ar
    30    19    13    1
    31    10     4   ar
    32    18    20    1
    33    18    21    1
