@<TRIPOS>MOLECULE
*****
 57 60 0 0 0
SMALL
GASTEIGER

@<TRIPOS>ATOM
      1 C          62.6854   88.4929   10.3000 C.3     1  UNL1        0.1305
      2 C          62.8393   89.2543   11.5833 C.3     1  UNL1        0.0551
      3 C          62.7228   90.6825   11.1401 C.3     1  UNL1        0.0050
      4 C          63.0450   89.3799   13.0638 C.3     1  UNL1        0.1202
      5 C          63.2617   88.8450   14.4484 C.3     1  UNL1        0.0302
      6 C          63.3691   89.7518   15.4426 C.3     1  UNL1        0.0026
      7 C          63.4466   87.7555   15.4626 C.3     1  UNL1        0.0393
      8 C          63.5631   86.3272   15.9059 C.3     1  UNL1        0.1707
      9 C          63.7774   85.6892   17.2464 C.3     1  UNL1        0.1767
     10 O          63.7050   87.1829   17.1297 O.3     1  UNL1       -0.3462
     11 C          63.5880   84.8430   15.6902 C.2     1  UNL1        0.1803
     12 O          63.8047   84.3082   17.0747 O.2     1  UNL1       -0.2934
     13 C          63.5164   83.5968   14.8583 C.3     1  UNL1        0.1002
     14 C          63.7140   82.6410   15.9973 C.3     1  UNL1        0.0116
     15 C          63.3625   82.8355   13.5751 C.3     1  UNL1        0.1791
     16 C          63.1569   82.7099   12.0946 C.3     1  UNL1        0.0806
     17 C          63.1818   81.2257   11.8789 C.3     1  UNL1        0.0075
     18 C          62.9401   83.2448   10.7100 C.3     1  UNL1        0.1723
     19 C          62.8685   81.9987    9.8782 C.3     1  UNL1        0.0474
     20 O          62.7552   84.3342    9.6957 O.3     1  UNL1       -0.4521
     21 C          62.6387   85.7626    9.2525 C.2     1  UNL1        0.3187
     22 O          62.4330   85.6369    7.7720 O.2     1  UNL1       -0.2500
     23 C          62.6138   87.2468    9.4682 C.3     1  UNL1        0.1263
     24 C          62.3977   87.4269    7.9949 C.3     1  UNL1        0.0142
     25 O          62.5005   89.5824    9.2858 O.3     1  UNL1       -0.3323
     26 C          59.1051   88.4581    7.5660 C.3     1  UNL1        0.1626
     27 C          60.2608   88.5106    8.5207 C.3     1  UNL1        0.0946
     28 C          61.3448   89.5299    8.3310 C.3     1  UNL1        0.2377
     29 O          61.2730   90.4968    7.1864 O.3     1  UNL1       -0.3291
     30 C          60.1173   90.4443    6.2316 C.3     1  UNL1        0.1601
     31 C          60.0455   91.4111    5.0870 C.3     1  UNL1        0.0361
     32 C          59.0334   89.4250    6.4214 C.3     1  UNL1        0.2227
     33 C          58.1423   86.3540    7.8232 C.3     1  UNL1        0.1742
     34 O          58.0213   87.4388    7.7557 O.3     1  UNL1       -0.3496
     35 O          57.8777   89.3725    5.4666 O.3     1  UNL1       -0.4472
     36 C          56.8430   90.4584    5.4811 C.2     1  UNL1        0.3176
     37 C          57.1408   91.7865    4.8506 C.3     1  UNL1        0.1212
     38 O          55.8410   90.4070    5.9161 O.2     1  UNL1       -0.2501
     39 O          63.0200   90.8641   13.2794 O.3     1  UNL1       -0.3302
     40 C          64.2307   91.6891   12.9574 C.3     1  UNL1        0.2781
     41 O          64.3704   92.3193   11.6034 O.3     1  UNL1       -0.3303
     42 C          65.5811   93.1443   11.2813 C.3     1  UNL1        0.1194
     43 C          65.7208   93.7745    9.9274 C.3     1  UNL1        0.0322
     44 C          66.6520   93.3392   12.3134 C.3     1  UNL1        0.0494
     45 C          66.5124   92.7090   13.6675 C.3     1  UNL1        0.1056
     46 C          65.3017   91.8840   13.9895 C.3     1  UNL1        0.2391
     47 N          67.5833   92.9039   14.6994 N.3     1  UNL1       -0.2682
     48 C          67.8647   94.2749   15.2388 C.3     1  UNL1        0.0897
     49 C          68.3730   91.7275   15.1920 C.3     1  UNL1        0.0897
     50 O          65.1620   91.2539   15.3434 O.3     1  UNL1       -0.4455
     51 C          64.7043   92.0776   16.5105 C.2     1  UNL1        0.3176
     52 C          65.7072   92.6179   17.4865 C.3     1  UNL1        0.1212
     53 O          63.2438   92.3612   16.7015 O.2     1  UNL1       -0.2501
     54 O          63.4790   81.4073   14.0183 O.3     1  UNL1       -0.4517
     55 C          62.2710   80.5180   14.0081 C.2     1  UNL1        0.3175
     56 C          60.9087   81.1008   14.2419 C.3     1  UNL1        0.1212
     57 O          62.2433   79.0355   13.7818 O.2     1  UNL1       -0.2501
@<TRIPOS>BOND
     1    33    34    1
     2    26    34    1
     3    26    27    1
     4    27    28    1
     5    28    25    1
     6     1    25    1
     7     1     2    1
     8     2     3    1
     9     2     4    1
    10     4    39    1
    11    40    39    1
    12    40    41    1
    13    41    42    1
    14    42    43    1
    15    42    44    1
    16    44    45    1
    17    45    47    1
    18    47    48    1
    19    47    49    1
    20    45    46    1
    21    46    50    1
    22    50    51    1
    23    51    52    1
    24    51    53    2
    25     4     5    1
    26     5     6    1
    27     5     7    1
    28     8     7    1
    29     8     9    1
    30     9    10    1
    31     8    11    1
    32    11    12    2
    33    11    13    1
    34    13    14    1
    35    13    15    1
    36    15    54    1
    37    54    55    1
    38    55    56    1
    39    55    57    2
    40    15    16    1
    41    16    17    1
    42    16    18    1
    43    18    19    1
    44    18    20    1
    45    20    21    1
    46    21    22    2
    47    21    23    1
    48    23    24    1
    49    28    29    1
    50    29    30    1
    51    30    31    1
    52    30    32    1
    53    32    35    1
    54    35    36    1
    55    36    37    1
    56    36    38    2
    57    32    26    1
    58    23     1    1
    59    46    40    1
    60    10     8    1
@<TRIPOS>MOLECULE
*****
 57 60 0 0 0
SMALL
GASTEIGER

@<TRIPOS>ATOM
      1 C          63.6011   90.3328   14.8069 C.3     1  UNL1        0.1305
      2 C          63.6046   90.7801   13.3750 C.3     1  UNL1        0.0551
      3 C          63.9035   92.2459   13.4840 C.3     1  UNL1        0.0050
      4 C          63.4750   90.5750   11.8948 C.3     1  UNL1        0.1202
      5 C          63.2380   89.7581   10.6592 C.3     1  UNL1        0.0302
      6 C          63.2970   90.4084    9.4777 C.3     1  UNL1        0.0026
      7 C          62.9406   88.4914    9.9131 C.3     1  UNL1        0.0393
      8 C          62.6417   87.0255    9.8041 C.3     1  UNL1        0.1707
      9 C          62.3909   86.1196    8.6352 C.3     1  UNL1        0.1767
     10 O          62.6680   87.5763    8.4091 O.3     1  UNL1       -0.3462
     11 C          62.4004   85.6509   10.3539 C.2     1  UNL1        0.1803
     12 O          62.1634   84.8341    9.1183 O.2     1  UNL1       -0.2934
     13 C          62.2645   84.6398   11.4535 C.3     1  UNL1        0.1002
     14 C          61.9781   83.4736   10.5547 C.3     1  UNL1        0.0116
     15 C          62.2611   84.1925   12.8853 C.3     1  UNL1        0.1791
     16 C          62.3907   84.3976   14.3655 C.3     1  UNL1        0.0806
     17 C          62.1494   83.0229   14.9153 C.3     1  UNL1        0.0075
     18 C          62.6276   85.2144   15.6011 C.3     1  UNL1        0.1723
     19 C          62.4918   84.2034   16.7008 C.3     1  UNL1        0.0474
     20 O          62.9250   86.4812   16.3473 O.3     1  UNL1       -0.4521
     21 C          63.2240   87.9471   16.4563 C.2     1  UNL1        0.3187
     22 O          63.3536   88.1521   17.9366 O.2     1  UNL1       -0.2500
     23 C          63.4653   89.3217   15.9065 C.3     1  UNL1        0.1263
     24 C          63.6484   89.8181   17.3100 C.3     1  UNL1        0.0142
     25 O          63.8985   91.5995   15.5530 O.3     1  UNL1       -0.3323
     26 C          67.7255   92.5046   16.0868 C.3     1  UNL1        0.1626
     27 C          66.3916   91.8369   16.2445 C.3     1  UNL1        0.0946
     28 C          65.2324   92.2672   15.3953 C.3     1  UNL1        0.2377
     29 O          65.4072   93.3653   14.3884 O.3     1  UNL1       -0.3291
     30 C          66.7411   94.0330   14.2308 C.3     1  UNL1        0.1601
     31 C          66.9159   95.1310   13.2239 C.3     1  UNL1        0.0361
     32 C          67.9002   93.6026   15.0799 C.3     1  UNL1        0.2227
     33 C          69.8737   91.7612   16.5900 C.3     1  UNL1        0.1742
     34 O          68.8846   92.0742   16.9360 O.3     1  UNL1       -0.3496
     35 O          69.2342   94.2703   14.9223 O.3     1  UNL1       -0.4472
     36 C          69.7297   95.2143   15.9774 C.2     1  UNL1        0.3176
     37 C          71.1167   95.7785   15.8874 C.3     1  UNL1        0.1212
     38 O          69.1813   95.5665   16.8555 O.2     1  UNL1       -0.2501
     39 O          63.7163   91.9496   11.3451 O.3     1  UNL1       -0.3302
     40 C          65.1124   92.3946   11.0243 C.3     1  UNL1        0.2781
     41 O          66.2843   91.5838   11.4926 O.3     1  UNL1       -0.3303
     42 C          67.6804   92.0288   11.1719 C.3     1  UNL1        0.1194
     43 C          68.8522   91.2180   11.6402 C.3     1  UNL1        0.0322
     44 C          67.9046   93.2846   10.3828 C.3     1  UNL1        0.0494
     45 C          66.7327   94.0954    9.9144 C.3     1  UNL1        0.1056
     46 C          65.3366   93.6504   10.2352 C.3     1  UNL1        0.2391
     47 N          66.9570   95.3512    9.1254 N.3     1  UNL1       -0.2682
     48 C          66.6916   95.3670    7.6492 C.3     1  UNL1        0.0897
     49 C          67.4469   96.5913    9.8127 C.3     1  UNL1        0.0897
     50 O          64.1648   94.4612    9.7669 O.3     1  UNL1       -0.4455
     51 C          64.2325   95.9595    9.7893 C.2     1  UNL1        0.3176
     52 C          64.7159   96.6703   11.0187 C.3     1  UNL1        0.1212
     53 O          63.8169   96.7472    8.5823 O.2     1  UNL1       -0.2501
     54 O          61.9621   82.7267   12.7763 O.3     1  UNL1       -0.4517
     55 C          63.0787   81.7470   12.5675 C.2     1  UNL1        0.3175
     56 C          62.7722   80.2930   12.3626 C.3     1  UNL1        0.1212
     57 O          64.5481   82.0465   12.5344 O.2     1  UNL1       -0.2501
@<TRIPOS>BOND
     1    33    34    1
     2    26    34    1
     3    26    27    1
     4    27    28    1
     5    28    25    1
     6     1    25    1
     7     1     2    1
     8     2     3    1
     9     2     4    1
    10     4    39    1
    11    40    39    1
    12    40    41    1
    13    41    42    1
    14    42    43    1
    15    42    44    1
    16    44    45    1
    17    45    47    1
    18    47    48    1
    19    47    49    1
    20    45    46    1
    21    46    50    1
    22    50    51    1
    23    51    52    1
    24    51    53    2
    25     4     5    1
    26     5     6    1
    27     5     7    1
    28     8     7    1
    29     8     9    1
    30     9    10    1
    31     8    11    1
    32    11    12    2
    33    11    13    1
    34    13    14    1
    35    13    15    1
    36    15    54    1
    37    54    55    1
    38    55    56    1
    39    55    57    2
    40    15    16    1
    41    16    17    1
    42    16    18    1
    43    18    19    1
    44    18    20    1
    45    20    21    1
    46    21    22    2
    47    21    23    1
    48    23    24    1
    49    28    29    1
    50    29    30    1
    51    30    31    1
    52    30    32    1
    53    32    35    1
    54    35    36    1
    55    36    37    1
    56    36    38    2
    57    32    26    1
    58    23     1    1
    59    46    40    1
    60    10     8    1
@<TRIPOS>MOLECULE
*****
 57 60 0 0 0
SMALL
GASTEIGER

@<TRIPOS>ATOM
      1 C          62.7321   88.6079   10.3955 C.3     1  UNL1        0.1305
      2 C          62.9007   89.3332   11.6977 C.3     1  UNL1        0.0551
      3 C          62.7873   90.7735   11.2947 C.3     1  UNL1        0.0050
      4 C          63.1197   89.4174   13.1793 C.3     1  UNL1        0.1202
      5 C          63.3458   88.8438   14.5468 C.3     1  UNL1        0.0302
      6 C          63.4660   89.7226   15.5644 C.3     1  UNL1        0.0026
      7 C          63.5342   87.7262   15.5292 C.3     1  UNL1        0.0393
      8 C          63.6476   86.2858   15.9323 C.3     1  UNL1        0.1707
      9 C          63.8704   85.6104   17.2530 C.3     1  UNL1        0.1767
     10 O          63.8041   87.1071   17.1778 O.3     1  UNL1       -0.3462
     11 C          63.6635   84.8079   15.6760 C.2     1  UNL1        0.1803
     12 O          63.8896   84.2345   17.0435 O.2     1  UNL1       -0.2934
     13 C          63.5789   83.5853   14.8111 C.3     1  UNL1        0.1002
     14 C          63.7817   82.5978   15.9218 C.3     1  UNL1        0.0116
     15 C          63.4104   82.8601   13.5090 C.3     1  UNL1        0.1791
     16 C          63.1914   82.7759   12.0275 C.3     1  UNL1        0.0806
     17 C          63.2073   81.2980   11.7711 C.3     1  UNL1        0.0075
     18 C          62.9653   83.3494   10.6599 C.3     1  UNL1        0.1723
     19 C          62.8806   82.1268    9.7951 C.3     1  UNL1        0.0474
     20 O          62.7768   84.4670    9.6774 O.3     1  UNL1       -0.4521
     21 C          62.6634   85.9074    9.2744 C.2     1  UNL1        0.3187
     22 O          62.4444   85.8232    7.7928 O.2     1  UNL1       -0.2500
     23 C          62.6475   87.3853    9.5306 C.3     1  UNL1        0.1263
     24 C          62.4196   87.6066    8.0647 C.3     1  UNL1        0.0142
     25 O          62.5437   89.7255    9.4130 O.3     1  UNL1       -0.3323
     26 C          59.1930   88.6200    7.5962 C.3     1  UNL1        0.1626
     27 C          60.3101   88.6802    8.5955 C.3     1  UNL1        0.0946
     28 C          61.4267   89.6653    8.4138 C.3     1  UNL1        0.2377
     29 O          61.4261   90.5901    7.2327 O.3     1  UNL1       -0.3291
     30 C          60.3090   90.5299    6.2335 C.3     1  UNL1        0.1601
     31 C          60.3084   91.4546    5.0525 C.3     1  UNL1        0.0361
     32 C          59.1925   89.5449    6.4152 C.3     1  UNL1        0.2227
     33 C          58.1679   86.5527    7.9056 C.3     1  UNL1        0.1742
     34 O          58.0765   87.6350    7.7779 O.3     1  UNL1       -0.3496
     35 O          58.0754   89.4846    5.4160 O.3     1  UNL1       -0.4472
     36 C          57.0263   90.5566    5.3983 C.2     1  UNL1        0.3176
     37 C          57.3216   91.8844    4.7660 C.3     1  UNL1        0.1212
     38 O          56.0150   90.4946    5.8096 O.2     1  UNL1       -0.2501
     39 O          63.1037   90.8952   13.4355 O.3     1  UNL1       -0.3302
     40 C          64.1245   91.5094   14.3469 C.3     1  UNL1        0.2781
     41 O          63.7351   91.9326   15.7324 O.3     1  UNL1       -0.3303
     42 C          64.7560   92.5467   16.6438 C.3     1  UNL1        0.1194
     43 C          64.3665   92.9699   18.0291 C.3     1  UNL1        0.0322
     44 C          66.1662   92.7377   16.1698 C.3     1  UNL1        0.0494
     45 C          66.5557   92.3145   14.7844 C.3     1  UNL1        0.1056
     46 C          65.5349   91.7004   13.8730 C.3     1  UNL1        0.2391
     47 N          67.9660   92.5055   14.3106 N.3     1  UNL1       -0.2682
     48 C          68.4714   91.7324   13.1288 C.3     1  UNL1        0.0897
     49 C          68.8709   93.4699   15.0187 C.3     1  UNL1        0.0897
     50 O          65.9243   91.2772   12.4877 O.3     1  UNL1       -0.4455
     51 C          66.0965   92.3060   11.4098 C.2     1  UNL1        0.3176
     52 C          65.3647   93.6126   11.4962 C.3     1  UNL1        0.1212
     53 O          67.0005   92.0283   10.2454 O.2     1  UNL1       -0.2501
     54 O          63.5238   81.4198   13.9120 O.3     1  UNL1       -0.4517
     55 C          62.3030   80.5483   13.9324 C.2     1  UNL1        0.3175
     56 C          60.9603   81.1454   14.2336 C.3     1  UNL1        0.1212
     57 O          62.2437   79.0716   13.6764 O.2     1  UNL1       -0.2501
@<TRIPOS>BOND
     1    33    34    1
     2    26    34    1
     3    26    27    1
     4    27    28    1
     5    28    25    1
     6     1    25    1
     7     1     2    1
     8     2     3    1
     9     2     4    1
    10     4    39    1
    11    40    39    1
    12    40    41    1
    13    41    42    1
    14    42    43    1
    15    42    44    1
    16    44    45    1
    17    45    47    1
    18    47    48    1
    19    47    49    1
    20    45    46    1
    21    46    50    1
    22    50    51    1
    23    51    52    1
    24    51    53    2
    25     4     5    1
    26     5     6    1
    27     5     7    1
    28     8     7    1
    29     8     9    1
    30     9    10    1
    31     8    11    1
    32    11    12    2
    33    11    13    1
    34    13    14    1
    35    13    15    1
    36    15    54    1
    37    54    55    1
    38    55    56    1
    39    55    57    2
    40    15    16    1
    41    16    17    1
    42    16    18    1
    43    18    19    1
    44    18    20    1
    45    20    21    1
    46    21    22    2
    47    21    23    1
    48    23    24    1
    49    28    29    1
    50    29    30    1
    51    30    31    1
    52    30    32    1
    53    32    35    1
    54    35    36    1
    55    36    37    1
    56    36    38    2
    57    32    26    1
    58    23     1    1
    59    46    40    1
    60    10     8    1
@<TRIPOS>MOLECULE
*****
 57 60 0 0 0
SMALL
GASTEIGER

@<TRIPOS>ATOM
      1 C          63.1025   90.5334   11.4990 C.3     1  UNL1        0.1305
      2 C          63.8071   90.3952   12.8161 C.3     1  UNL1        0.0551
      3 C          64.0836   91.8192   13.1977 C.3     1  UNL1        0.0050
      4 C          64.3885   89.6232   13.9632 C.3     1  UNL1        0.1202
      5 C          64.7317   88.3704   14.7133 C.3     1  UNL1        0.0302
      6 C          65.3750   88.5212   15.8905 C.3     1  UNL1        0.0026
      7 C          64.7687   86.8849   14.9177 C.3     1  UNL1        0.0393
      8 C          64.4922   85.4608   14.5361 C.3     1  UNL1        0.1707
      9 C          64.7876   84.1501   15.2029 C.3     1  UNL1        0.1767
     10 O          65.2039   85.4345   15.8562 O.3     1  UNL1       -0.3462
     11 C          63.9569   84.3803   13.6438 C.2     1  UNL1        0.1803
     12 O          64.3001   83.1276   14.3939 O.2     1  UNL1       -0.2934
     13 C          63.2689   83.8574   12.4178 C.3     1  UNL1        0.1002
     14 C          63.3927   82.4070   12.7797 C.3     1  UNL1        0.0116
     15 C          62.5644   83.9956   11.1008 C.3     1  UNL1        0.1791
     16 C          61.9829   84.7676    9.9536 C.3     1  UNL1        0.0806
     17 C          61.4476   83.6871    9.0614 C.3     1  UNL1        0.0075
     18 C          61.6397   86.0205    9.2035 C.3     1  UNL1        0.1723
     19 C          60.9517   85.4976    7.9775 C.3     1  UNL1        0.0474
     20 O          61.6027   87.5060    8.9990 O.3     1  UNL1       -0.4521
     21 C          61.8792   88.9300    9.3808 C.2     1  UNL1        0.3187
     22 O          61.2977   89.7020    8.2336 O.2     1  UNL1       -0.2500
     23 C          62.4145   90.0105   10.2729 C.3     1  UNL1        0.1263
     24 C          61.9297   91.0271    9.2823 C.3     1  UNL1        0.0142
     25 O          63.0655   92.0189   11.2946 O.3     1  UNL1       -0.3323
     26 C          66.5743   92.7255    9.5801 C.3     1  UNL1        0.1626
     27 C          65.3482   92.0029   10.0538 C.3     1  UNL1        0.0946
     28 C          64.2917   92.7415   10.8208 C.3     1  UNL1        0.2377
     29 O          64.4614   94.2028   11.1141 O.3     1  UNL1       -0.3291
     30 C          65.6875   94.9254   10.6404 C.3     1  UNL1        0.1601
     31 C          65.8572   96.3866   10.9336 C.3     1  UNL1        0.0361
     32 C          66.7439   94.1868    9.8734 C.3     1  UNL1        0.2227
     33 C          68.6767   92.2791    8.6852 C.3     1  UNL1        0.1742
     34 O          67.6307   91.9869    8.8131 O.3     1  UNL1       -0.3496
     35 O          67.9702   94.9094    9.3996 O.3     1  UNL1       -0.4472
     36 C          67.8576   95.9578    8.3328 C.2     1  UNL1        0.3176
     37 C          66.8132   95.8307    7.2637 C.3     1  UNL1        0.1212
     38 O          68.4725   96.8556    8.2248 O.2     1  UNL1       -0.2501
     39 O          64.9238   90.7037   14.8554 O.3     1  UNL1       -0.3302
     40 C          66.2644   91.3143   14.5724 C.3     1  UNL1        0.2781
     41 O          66.9047   91.1285   13.2287 O.3     1  UNL1       -0.3303
     42 C          68.2453   91.7391   12.9458 C.3     1  UNL1        0.1194
     43 C          68.8855   91.5533   11.6021 C.3     1  UNL1        0.0322
     44 C          68.9455   92.5355   14.0066 C.3     1  UNL1        0.0494
     45 C          68.3053   92.7214   15.3503 C.3     1  UNL1        0.1056
     46 C          66.9647   92.1108   15.6333 C.3     1  UNL1        0.2391
     47 N          69.0057   93.5178   16.4110 N.3     1  UNL1       -0.2682
     48 C          69.8809   92.8258   17.4134 C.3     1  UNL1        0.0897
     49 C          68.8307   95.0065   16.4693 C.3     1  UNL1        0.0897
     50 O          66.3245   92.2966   16.9769 O.3     1  UNL1       -0.4455
     51 C          64.8400   92.4853   17.0807 C.2     1  UNL1        0.3176
     52 C          63.9216   91.3098   16.9234 C.3     1  UNL1        0.1212
     53 O          64.2739   93.8497   17.3419 O.2     1  UNL1       -0.2501
     54 O          62.2878   82.5717   10.7191 O.3     1  UNL1       -0.4517
     55 C          63.4024   81.6976   10.2252 C.2     1  UNL1        0.3175
     56 C          63.1865   80.2209   10.0737 C.3     1  UNL1        0.1212
     57 O          64.7859   82.1302    9.8399 O.2     1  UNL1       -0.2501
@<TRIPOS>BOND
     1    33    34    1
     2    26    34    1
     3    26    27    1
     4    27    28    1
     5    28    25    1
     6     1    25    1
     7     1     2    1
     8     2     3    1
     9     2     4    1
    10     4    39    1
    11    40    39    1
    12    40    41    1
    13    41    42    1
    14    42    43    1
    15    42    44    1
    16    44    45    1
    17    45    47    1
    18    47    48    1
    19    47    49    1
    20    45    46    1
    21    46    50    1
    22    50    51    1
    23    51    52    1
    24    51    53    2
    25     4     5    1
    26     5     6    1
    27     5     7    1
    28     8     7    1
    29     8     9    1
    30     9    10    1
    31     8    11    1
    32    11    12    2
    33    11    13    1
    34    13    14    1
    35    13    15    1
    36    15    54    1
    37    54    55    1
    38    55    56    1
    39    55    57    2
    40    15    16    1
    41    16    17    1
    42    16    18    1
    43    18    19    1
    44    18    20    1
    45    20    21    1
    46    21    22    2
    47    21    23    1
    48    23    24    1
    49    28    29    1
    50    29    30    1
    51    30    31    1
    52    30    32    1
    53    32    35    1
    54    35    36    1
    55    36    37    1
    56    36    38    2
    57    32    26    1
    58    23     1    1
    59    46    40    1
    60    10     8    1
@<TRIPOS>MOLECULE
*****
 57 60 0 0 0
SMALL
GASTEIGER

@<TRIPOS>ATOM
      1 C          63.0015   89.5609   13.3506 C.3     1  UNL1        0.1305
      2 C          62.8079   89.5716   11.8631 C.3     1  UNL1        0.0551
      3 C          62.6392   91.0306   11.5588 C.3     1  UNL1        0.0050
      4 C          62.6895   88.9328   10.5111 C.3     1  UNL1        0.1202
      5 C          62.6695   87.7712    9.5622 C.3     1  UNL1        0.0302
      6 C          62.4754   88.0535    8.2565 C.3     1  UNL1        0.0026
      7 C          62.7521   86.3168    9.2046 C.3     1  UNL1        0.0393
      8 C          62.9208   84.8577    9.5088 C.3     1  UNL1        0.1707
      9 C          62.9182   83.6291    8.6482 C.3     1  UNL1        0.1767
     10 O          62.7181   84.9799    8.0276 O.3     1  UNL1       -0.3462
     11 C          63.1423   83.6828   10.4148 C.2     1  UNL1        0.1803
     12 O          63.1223   82.5213    9.4659 O.2     1  UNL1       -0.2934
     13 C          63.3726   83.0250   11.7430 C.3     1  UNL1        0.1002
     14 C          63.4280   81.6233   11.2119 C.3     1  UNL1        0.0116
     15 C          63.5661   83.0144   13.2304 C.3     1  UNL1        0.1791
     16 C          63.6846   83.6531   14.5824 C.3     1  UNL1        0.0806
     17 C          63.9061   82.4783   15.4884 C.3     1  UNL1        0.0075
     18 C          63.7045   84.8148   15.5312 C.3     1  UNL1        0.1723
     19 C          63.9348   84.1569   16.8594 C.3     1  UNL1        0.0474
     20 O          63.6220   86.2691   15.8890 O.3     1  UNL1       -0.4521
     21 C          63.4533   87.7282   15.5847 C.2     1  UNL1        0.3187
     22 O          63.5717   88.3670   16.9367 O.2     1  UNL1       -0.2500
     23 C          63.2318   88.9031   14.6788 C.3     1  UNL1        0.1263
     24 C          63.3072   89.8027   15.8766 C.3     1  UNL1        0.0142
     25 O          62.9189   91.0153   13.7082 O.3     1  UNL1       -0.3323
     26 C          66.1072   93.2880   13.0602 C.3     1  UNL1        0.1626
     27 C          64.8524   92.5035   12.8154 C.3     1  UNL1        0.0946
     28 C          64.1738   91.7998   13.9531 C.3     1  UNL1        0.2377
     29 O          64.7501   91.8806   15.3356 O.3     1  UNL1       -0.3291
     30 C          66.0049   92.6650   15.5805 C.3     1  UNL1        0.1601
     31 C          66.5812   92.7458   16.9629 C.3     1  UNL1        0.0361
     32 C          66.6834   93.3688   14.4428 C.3     1  UNL1        0.2227
     33 C          66.3338   94.7020   11.2246 C.3     1  UNL1        0.1742
     34 O          66.7857   93.9917   11.9226 O.3     1  UNL1       -0.3496
     35 O          67.9383   94.1533   14.6876 O.3     1  UNL1       -0.4472
     36 C          69.2051   93.4436   15.0639 C.2     1  UNL1        0.3176
     37 C          70.0313   93.9421   16.2124 C.3     1  UNL1        0.1212
     38 O          69.6313   92.5586   14.5834 O.2     1  UNL1       -0.2501
     39 O          62.4680   90.1076    9.6052 O.3     1  UNL1       -0.3302
     40 C          61.5261   89.9919    8.4435 C.3     1  UNL1        0.2781
     41 O          61.8047   90.7414    7.1744 O.3     1  UNL1       -0.3303
     42 C          60.8628   90.6256    6.0127 C.3     1  UNL1        0.1194
     43 C          61.1415   91.3751    4.7437 C.3     1  UNL1        0.0322
     44 C          59.6423   89.7603    6.1202 C.3     1  UNL1        0.0494
     45 C          59.3637   89.0108    7.3893 C.3     1  UNL1        0.1056
     46 C          60.3056   89.1265    8.5509 C.3     1  UNL1        0.2391
     47 N          58.1431   88.1455    7.4966 N.3     1  UNL1       -0.2682
     48 C          56.8171   88.6560    7.0163 C.3     1  UNL1        0.0897
     49 C          58.2488   86.7694    8.0844 C.3     1  UNL1        0.0897
     50 O          60.0269   88.3770    9.8200 O.3     1  UNL1       -0.4455
     51 C          59.5486   89.1132   11.0362 C.2     1  UNL1        0.3176
     52 C          59.3118   90.5931   10.9724 C.3     1  UNL1        0.1212
     53 O          59.3071   88.3696   12.3164 O.2     1  UNL1       -0.2501
     54 O          63.7348   81.5553   13.5346 O.3     1  UNL1       -0.4517
     55 C          62.5330   80.6607   13.6082 C.2     1  UNL1        0.3175
     56 C          61.2349   81.1909   14.1411 C.3     1  UNL1        0.1212
     57 O          62.4527   79.2210   13.1951 O.2     1  UNL1       -0.2501
@<TRIPOS>BOND
     1    33    34    1
     2    26    34    1
     3    26    27    1
     4    27    28    1
     5    28    25    1
     6     1    25    1
     7     1     2    1
     8     2     3    1
     9     2     4    1
    10     4    39    1
    11    40    39    1
    12    40    41    1
    13    41    42    1
    14    42    43    1
    15    42    44    1
    16    44    45    1
    17    45    47    1
    18    47    48    1
    19    47    49    1
    20    45    46    1
    21    46    50    1
    22    50    51    1
    23    51    52    1
    24    51    53    2
    25     4     5    1
    26     5     6    1
    27     5     7    1
    28     8     7    1
    29     8     9    1
    30     9    10    1
    31     8    11    1
    32    11    12    2
    33    11    13    1
    34    13    14    1
    35    13    15    1
    36    15    54    1
    37    54    55    1
    38    55    56    1
    39    55    57    2
    40    15    16    1
    41    16    17    1
    42    16    18    1
    43    18    19    1
    44    18    20    1
    45    20    21    1
    46    21    22    2
    47    21    23    1
    48    23    24    1
    49    28    29    1
    50    29    30    1
    51    30    31    1
    52    30    32    1
    53    32    35    1
    54    35    36    1
    55    36    37    1
    56    36    38    2
    57    32    26    1
    58    23     1    1
    59    46    40    1
    60    10     8    1
