@<TRIPOS>MOLECULE
*****
 29 32 0 0 0
SMALL
GASTEIGER

@<TRIPOS>ATOM
      1 C          66.2908   92.3888   16.4370 C.3     1  UNL1        0.0518
      2 C          65.7521   92.1721   15.0539 C.ar    1  UNL1        0.0568
      3 N          64.7344   91.0986   14.8051 N.ar    1  UNL1       -0.2456
      4 C          64.1957   90.8818   13.4221 C.ar    1  UNL1        0.1322
      5 C          64.6747   91.7386   12.2878 C.ar    1  UNL1        0.0200
      6 C          65.6923   92.8122   12.5366 C.ar    1  UNL1       -0.0015
      7 C          66.2310   93.0289   13.9197 C.ar    1  UNL1        0.0068
      8 C          63.9681   91.2949   11.0413 C.3     1  UNL1        0.1267
      9 N          63.0525   90.1639   11.4051 N.am    1  UNL1       -0.2496
     10 C          63.1932   89.9086   12.8765 C.2     1  UNL1        0.2705
     11 O          62.4600   88.8635   13.6641 O.2     1  UNL1       -0.2679
     12 C          66.1713   93.6690   11.4024 C.ar    1  UNL1        0.0102
     13 C          65.5400   95.0070   11.1547 C.ar    1  UNL1        0.0017
     14 C          66.0189   95.8639   10.0206 C.ar    1  UNL1        0.0114
     15 C          67.1291   95.3828    9.1341 C.ar    1  UNL1        0.0585
     16 CL         67.6080   96.2397    7.9999 Cl      1  UNL1       -0.0822
     17 C          67.7604   94.0448    9.3817 C.ar    1  UNL1        0.0228
     18 C          67.2815   93.1879   10.5159 C.ar    1  UNL1        0.0585
     19 CL         67.9128   91.8500   10.7635 Cl      1  UNL1       -0.0822
     20 C          62.1539   89.4189   10.4630 C.ar    1  UNL1        0.0545
     21 C          62.4094   87.9700   10.1710 C.ar    1  UNL1        0.0149
     22 C          61.5107   87.2251    9.2288 C.ar    1  UNL1        0.0013
     23 C          60.3567   87.9290    8.5787 C.ar    1  UNL1        0.0001
     24 C          60.1013   89.3780    8.8707 C.ar    1  UNL1        0.0013
     25 C          60.9999   90.1229    9.8129 C.ar    1  UNL1        0.0149
     26 C          67.2487   94.1025   14.1685 C.3     1  UNL1        0.0934
     27 N          68.5108   93.7815   14.9128 N.3     1  UNL1       -0.3174
     28 H          68.2841   93.5347   15.8761 H       1  UNL1        0.1192
     29 H          69.1258   94.5952   14.9060 H       1  UNL1        0.1192
@<TRIPOS>BOND
     1     1     2    1
     2     2     3   ar
     3     3     4   ar
     4     4     5   ar
     5     5     6   ar
     6     6    12    1
     7    12    13   ar
     8    13    14   ar
     9    14    15   ar
    10    15    16    1
    11    15    17   ar
    12    17    18   ar
    13    18    19    1
    14     6     7   ar
    15     7    26    1
    16    26    27    1
    17     5     8    1
    18     8     9    1
    19     9    20    1
    20    20    21   ar
    21    21    22   ar
    22    22    23   ar
    23    23    24   ar
    24    24    25   ar
    25     9    10   am
    26    10    11    2
    27     7     2   ar
    28    25    20   ar
    29    10     4    1
    30    18    12   ar
    31    27    28    1
    32    27    29    1
@<TRIPOS>MOLECULE
*****
 29 32 0 0 0
SMALL
GASTEIGER

@<TRIPOS>ATOM
      1 C          64.8604   90.3060   14.4613 C.3     1  UNL1        0.0518
      2 C          64.2051   89.1069   13.8424 C.ar    1  UNL1        0.0568
      3 N          64.4324   87.7437   14.4255 N.ar    1  UNL1       -0.2456
      4 C          63.7772   86.5446   13.8067 C.ar    1  UNL1        0.1322
      5 C          62.8949   86.7087   12.6049 C.ar    1  UNL1        0.0200
      6 C          62.6676   88.0719   12.0218 C.ar    1  UNL1       -0.0015
      7 C          63.3229   89.2710   12.6406 C.ar    1  UNL1        0.0068
      8 C          62.3872   85.3525   12.2138 C.3     1  UNL1        0.1267
      9 N          62.9558   84.3502   13.1740 N.am    1  UNL1       -0.2496
     10 C          63.8149   85.0869   14.1585 C.2     1  UNL1        0.2705
     11 O          64.5777   84.4737   15.2952 O.2     1  UNL1       -0.2679
     12 C          61.7853   88.2361   10.8198 C.ar    1  UNL1        0.0102
     13 C          62.1712   87.6060    9.5145 C.ar    1  UNL1        0.0017
     14 C          61.2890   87.7701    8.3126 C.ar    1  UNL1        0.0114
     15 C          60.0208   88.5644    8.4161 C.ar    1  UNL1        0.0585
     16 CL         59.1385   88.7285    7.2141 Cl      1  UNL1       -0.0822
     17 C          59.6348   89.1946    9.7214 C.ar    1  UNL1        0.0228
     18 C          60.5171   89.0304   10.9233 C.ar    1  UNL1        0.0585
     19 CL         60.1312   89.6606   12.2287 Cl      1  UNL1       -0.0822
     20 C          62.7087   82.8708   13.1534 C.ar    1  UNL1        0.0545
     21 C          62.0043   82.2120   14.3022 C.ar    1  UNL1        0.0149
     22 C          61.7573   80.7326   14.2816 C.ar    1  UNL1        0.0013
     23 C          62.2146   79.9120   13.1121 C.ar    1  UNL1        0.0001
     24 C          62.9190   80.5708   11.9633 C.ar    1  UNL1        0.0013
     25 C          63.1661   82.0503   11.9840 C.ar    1  UNL1        0.0149
     26 C          63.0956   90.6343   12.0575 C.3     1  UNL1        0.0934
     27 N          63.9485   91.1158   10.9214 N.3     1  UNL1       -0.3174
     28 H          64.9109   91.2252   11.2413 H       1  UNL1        0.1192
     29 H          63.5967   92.0135   10.5888 H       1  UNL1        0.1192
@<TRIPOS>BOND
     1     1     2    1
     2     2     3   ar
     3     3     4   ar
     4     4     5   ar
     5     5     6   ar
     6     6    12    1
     7    12    13   ar
     8    13    14   ar
     9    14    15   ar
    10    15    16    1
    11    15    17   ar
    12    17    18   ar
    13    18    19    1
    14     6     7   ar
    15     7    26    1
    16    26    27    1
    17     5     8    1
    18     8     9    1
    19     9    20    1
    20    20    21   ar
    21    21    22   ar
    22    22    23   ar
    23    23    24   ar
    24    24    25   ar
    25     9    10   am
    26    10    11    2
    27     7     2   ar
    28    25    20   ar
    29    10     4    1
    30    18    12   ar
    31    27    28    1
    32    27    29    1
@<TRIPOS>MOLECULE
*****
 29 32 0 0 0
SMALL
GASTEIGER

@<TRIPOS>ATOM
      1 C          65.2530   86.3569   15.4639 C.3     1  UNL1        0.0518
      2 C          64.4081   86.0762   14.2566 C.ar    1  UNL1        0.0568
      3 N          63.7495   87.2067   13.5229 N.ar    1  UNL1       -0.2456
      4 C          62.9047   86.9261   12.3156 C.ar    1  UNL1        0.1322
      5 C          62.7185   85.5150   11.8420 C.ar    1  UNL1        0.0200
      6 C          63.3771   84.3846   12.5757 C.ar    1  UNL1       -0.0015
      7 C          64.2220   84.6653   13.7830 C.ar    1  UNL1        0.0068
      8 C          61.8354   85.5455   10.6299 C.3     1  UNL1        0.1267
      9 N          61.4758   86.9755   10.3544 N.am    1  UNL1       -0.2496
     10 C          62.1366   87.8287   11.3962 C.2     1  UNL1        0.2705
     11 O          62.0454   89.3223   11.5003 O.2     1  UNL1       -0.2679
     12 C          63.1910   82.9735   12.1022 C.ar    1  UNL1        0.0102
     13 C          62.4468   81.9885   12.9542 C.ar    1  UNL1        0.0017
     14 C          62.2607   80.5774   12.4807 C.ar    1  UNL1        0.0114
     15 C          62.8187   80.1514   11.1552 C.ar    1  UNL1        0.0585
     16 CL         62.6326   78.7403   10.6818 Cl      1  UNL1       -0.0822
     17 C          63.5629   81.1363   10.3032 C.ar    1  UNL1        0.0228
     18 C          63.7491   82.5474   10.7767 C.ar    1  UNL1        0.0585
     19 CL         64.4933   83.5324    9.9246 Cl      1  UNL1       -0.0822
     20 C          60.6078   87.4661    9.2338 C.ar    1  UNL1        0.0545
     21 C          60.5325   88.9332    8.9305 C.ar    1  UNL1        0.0149
     22 C          59.6644   89.4238    7.8099 C.ar    1  UNL1        0.0013
     23 C          58.8717   88.4474    6.9925 C.ar    1  UNL1        0.0001
     24 C          58.9470   86.9803    7.2957 C.ar    1  UNL1        0.0013
     25 C          59.8151   86.4897    8.4164 C.ar    1  UNL1        0.0149
     26 C          64.8807   83.5348   14.5168 C.3     1  UNL1        0.0934
     27 N          64.2349   82.9585   15.7418 N.3     1  UNL1       -0.3174
     28 H          64.2246   83.6596   16.4825 H       1  UNL1        0.1192
     29 H          64.7630   82.1431   16.0529 H       1  UNL1        0.1192
@<TRIPOS>BOND
     1     1     2    1
     2     2     3   ar
     3     3     4   ar
     4     4     5   ar
     5     5     6   ar
     6     6    12    1
     7    12    13   ar
     8    13    14   ar
     9    14    15   ar
    10    15    16    1
    11    15    17   ar
    12    17    18   ar
    13    18    19    1
    14     6     7   ar
    15     7    26    1
    16    26    27    1
    17     5     8    1
    18     8     9    1
    19     9    20    1
    20    20    21   ar
    21    21    22   ar
    22    22    23   ar
    23    23    24   ar
    24    24    25   ar
    25     9    10   am
    26    10    11    2
    27     7     2   ar
    28    25    20   ar
    29    10     4    1
    30    18    12   ar
    31    27    28    1
    32    27    29    1
@<TRIPOS>MOLECULE
*****
 29 32 0 0 0
SMALL
GASTEIGER

@<TRIPOS>ATOM
      1 C          66.2839   93.3632   13.0980 C.3     1  UNL1        0.0518
      2 C          65.3439   92.2183   12.8621 C.ar    1  UNL1        0.0568
      3 N          64.6478   92.0795   11.5406 N.ar    1  UNL1       -0.2456
      4 C          63.7078   90.9347   11.3047 C.ar    1  UNL1        0.1322
      5 C          63.4638   89.9286   12.3902 C.ar    1  UNL1        0.0200
      6 C          64.1598   90.0674   13.7116 C.ar    1  UNL1       -0.0015
      7 C          65.0999   91.2123   13.9475 C.ar    1  UNL1        0.0068
      8 C          62.4900   88.9129   11.8705 C.3     1  UNL1        0.1267
      9 N          62.1322   89.2912   10.4638 N.am    1  UNL1       -0.2496
     10 C          62.8848   90.5407   10.1141 C.2     1  UNL1        0.2705
     11 O          62.8250   91.2685    8.8038 O.2     1  UNL1       -0.2679
     12 C          63.9159   89.0614   14.7972 C.ar    1  UNL1        0.0102
     13 C          64.3482   87.6372   14.6108 C.ar    1  UNL1        0.0017
     14 C          64.1043   86.6311   15.6963 C.ar    1  UNL1        0.0114
     15 C          63.4281   87.0493   16.9682 C.ar    1  UNL1        0.0585
     16 CL         63.1842   86.0432   18.0537 Cl      1  UNL1       -0.0822
     17 C          62.9958   88.4735   17.1546 C.ar    1  UNL1        0.0228
     18 C          63.2397   89.4795   16.0691 C.ar    1  UNL1        0.0585
     19 CL         62.8073   90.9037   16.2556 Cl      1  UNL1       -0.0822
     20 C          61.1876   88.5501    9.5646 C.ar    1  UNL1        0.0545
     21 C          61.2100   87.0508    9.5257 C.ar    1  UNL1        0.0149
     22 C          60.2654   86.3097    8.6264 C.ar    1  UNL1        0.0013
     23 C          59.2984   87.0680    7.7662 C.ar    1  UNL1        0.0001
     24 C          59.2760   88.5673    7.8051 C.ar    1  UNL1        0.0013
     25 C          60.2207   89.3083    8.7044 C.ar    1  UNL1        0.0149
     26 C          65.7960   91.3511   15.2691 C.3     1  UNL1        0.0934
     27 N          65.6105   92.5944   16.0875 N.3     1  UNL1       -0.3174
     28 H          66.0183   93.3893   15.5954 H       1  UNL1        0.1192
     29 H          66.0724   92.4796   16.9897 H       1  UNL1        0.1192
@<TRIPOS>BOND
     1     1     2    1
     2     2     3   ar
     3     3     4   ar
     4     4     5   ar
     5     5     6   ar
     6     6    12    1
     7    12    13   ar
     8    13    14   ar
     9    14    15   ar
    10    15    16    1
    11    15    17   ar
    12    17    18   ar
    13    18    19    1
    14     6     7   ar
    15     7    26    1
    16    26    27    1
    17     5     8    1
    18     8     9    1
    19     9    20    1
    20    20    21   ar
    21    21    22   ar
    22    22    23   ar
    23    23    24   ar
    24    24    25   ar
    25     9    10   am
    26    10    11    2
    27     7     2   ar
    28    25    20   ar
    29    10     4    1
    30    18    12   ar
    31    27    28    1
    32    27    29    1
@<TRIPOS>MOLECULE
*****
 29 32 0 0 0
SMALL
GASTEIGER

@<TRIPOS>ATOM
      1 C          64.6890   90.4577   14.1117 C.3     1  UNL1        0.0518
      2 C          64.0524   89.2307   13.5291 C.ar    1  UNL1        0.0568
      3 N          64.3140   87.8870   14.1422 N.ar    1  UNL1       -0.2456
      4 C          63.6774   86.6601   13.5597 C.ar    1  UNL1        0.1322
      5 C          62.7792   86.7768   12.3641 C.ar    1  UNL1        0.0200
      6 C          62.5175   88.1205   11.7510 C.ar    1  UNL1       -0.0015
      7 C          63.1542   89.3475   12.3336 C.ar    1  UNL1        0.0068
      8 C          62.2957   85.4014   12.0114 C.3     1  UNL1        0.1267
      9 N          62.8952   84.4345   12.9891 N.am    1  UNL1       -0.2496
     10 C          63.7491   85.2124   13.9460 C.2     1  UNL1        0.2705
     11 O          64.5365   84.6427   15.0885 O.2     1  UNL1       -0.2679
     12 C          61.6192   88.2374   10.5554 C.ar    1  UNL1        0.0102
     13 C          60.5278   89.2661   10.5351 C.ar    1  UNL1        0.0017
     14 C          59.6295   89.3831    9.3395 C.ar    1  UNL1        0.0114
     15 C          59.8227   88.4713    8.1643 C.ar    1  UNL1        0.0585
     16 CL         58.9244   88.5882    6.9687 Cl      1  UNL1       -0.0822
     17 C          60.9142   87.4426    8.1845 C.ar    1  UNL1        0.0228
     18 C          61.8125   87.3256    9.3801 C.ar    1  UNL1        0.0585
     19 CL         62.9040   86.2969    9.4004 Cl      1  UNL1       -0.0822
     20 C          62.6787   82.9503   13.0068 C.ar    1  UNL1        0.0545
     21 C          63.1091   82.1156   11.8371 C.ar    1  UNL1        0.0149
     22 C          62.8926   80.6314   11.8549 C.ar    1  UNL1        0.0013
     23 C          62.2457   79.9819   13.0422 C.ar    1  UNL1        0.0001
     24 C          61.8153   80.8166   14.2118 C.ar    1  UNL1        0.0013
     25 C          62.0318   82.3008   14.1941 C.ar    1  UNL1        0.0149
     26 C          62.8925   90.6913   11.7204 C.3     1  UNL1        0.0934
     27 N          63.7854   91.2049   10.6301 N.3     1  UNL1       -0.3174
     28 H          64.7203   91.3672   11.0045 H       1  UNL1        0.1192
     29 H          63.4085   92.0799   10.2658 H       1  UNL1        0.1192
@<TRIPOS>BOND
     1     1     2    1
     2     2     3   ar
     3     3     4   ar
     4     4     5   ar
     5     5     6   ar
     6     6    12    1
     7    12    13   ar
     8    13    14   ar
     9    14    15   ar
    10    15    16    1
    11    15    17   ar
    12    17    18   ar
    13    18    19    1
    14     6     7   ar
    15     7    26    1
    16    26    27    1
    17     5     8    1
    18     8     9    1
    19     9    20    1
    20    20    21   ar
    21    21    22   ar
    22    22    23   ar
    23    23    24   ar
    24    24    25   ar
    25     9    10   am
    26    10    11    2
    27     7     2   ar
    28    25    20   ar
    29    10     4    1
    30    18    12   ar
    31    27    28    1
    32    27    29    1
@<TRIPOS>MOLECULE
*****
 29 32 0 0 0
SMALL
GASTEIGER

@<TRIPOS>ATOM
      1 C          62.5429   86.7205   18.6529 C.3     1  UNL1        0.0518
      2 C          62.9576   87.1733   17.2842 C.ar    1  UNL1        0.0568
      3 N          63.2378   88.6243   17.0273 N.ar    1  UNL1       -0.2456
      4 C          63.6525   89.0772   15.6587 C.ar    1  UNL1        0.1322
      5 C          63.7869   88.0790   14.5471 C.ar    1  UNL1        0.0200
      6 C          63.5066   86.6280   14.8041 C.ar    1  UNL1       -0.0015
      7 C          63.0919   86.1752   16.1727 C.ar    1  UNL1        0.0068
      8 C          64.2101   88.8159   13.3110 C.3     1  UNL1        0.1267
      9 N          64.3372   90.2695   13.6587 N.am    1  UNL1       -0.2496
     10 C          63.9926   90.4310   15.1097 C.2     1  UNL1        0.2705
     11 O          63.9888   91.7200   15.8768 O.2     1  UNL1       -0.2679
     12 C          63.6410   85.6298   13.6925 C.ar    1  UNL1        0.0102
     13 C          62.6054   85.5700   12.6090 C.ar    1  UNL1        0.0017
     14 C          62.7397   84.5718   11.4974 C.ar    1  UNL1        0.0114
     15 C          63.9096   83.6335   11.4694 C.ar    1  UNL1        0.0585
     16 CL         64.0439   82.6353   10.3578 Cl      1  UNL1       -0.0822
     17 C          64.9452   83.6933   12.5529 C.ar    1  UNL1        0.0228
     18 C          64.8109   84.6915   13.6645 C.ar    1  UNL1        0.0585
     19 CL         65.8465   84.7513   14.7480 Cl      1  UNL1       -0.0822
     20 C          64.7384   91.3687   12.7202 C.ar    1  UNL1        0.0545
     21 C          64.1088   91.4624   11.3620 C.ar    1  UNL1        0.0149
     22 C          64.5102   92.5616   10.4235 C.ar    1  UNL1        0.0013
     23 C          65.5410   93.5672   10.8433 C.ar    1  UNL1        0.0001
     24 C          66.1705   93.4736   12.2016 C.ar    1  UNL1        0.0013
     25 C          65.7692   92.3743   13.1400 C.ar    1  UNL1        0.0149
     26 C          62.8116   84.7241   16.4297 C.3     1  UNL1        0.0934
     27 N          61.8479   83.9799   15.5538 N.3     1  UNL1       -0.3174
     28 H          60.9099   84.3600   15.6806 H       1  UNL1        0.1192
     29 H          61.8515   82.9918   15.8071 H       1  UNL1        0.1192
@<TRIPOS>BOND
     1     1     2    1
     2     2     3   ar
     3     3     4   ar
     4     4     5   ar
     5     5     6   ar
     6     6    12    1
     7    12    13   ar
     8    13    14   ar
     9    14    15   ar
    10    15    16    1
    11    15    17   ar
    12    17    18   ar
    13    18    19    1
    14     6     7   ar
    15     7    26    1
    16    26    27    1
    17     5     8    1
    18     8     9    1
    19     9    20    1
    20    20    21   ar
    21    21    22   ar
    22    22    23   ar
    23    23    24   ar
    24    24    25   ar
    25     9    10   am
    26    10    11    2
    27     7     2   ar
    28    25    20   ar
    29    10     4    1
    30    18    12   ar
    31    27    28    1
    32    27    29    1
@<TRIPOS>MOLECULE
*****
 29 32 0 0 0
SMALL
GASTEIGER

@<TRIPOS>ATOM
      1 C          59.1000   88.1990    7.4118 C.3     1  UNL1        0.0518
      2 C          60.1065   88.1487    8.5230 C.ar    1  UNL1        0.0568
      3 N          60.5116   89.4105    9.2255 N.ar    1  UNL1       -0.2456
      4 C          61.5181   89.3603   10.3366 C.ar    1  UNL1        0.1322
      5 C          62.1194   88.0482   10.7451 C.ar    1  UNL1        0.0200
      6 C          61.7142   86.7864   10.0426 C.ar    1  UNL1       -0.0015
      7 C          60.7078   86.8367    8.9314 C.ar    1  UNL1        0.0068
      8 C          63.0803   88.3080   11.8673 C.3     1  UNL1        0.1267
      9 N          63.0728   89.7806   12.1522 N.am    1  UNL1       -0.2496
     10 C          62.1073   90.4310   11.2063 C.2     1  UNL1        0.2705
     11 O          61.7874   91.8950   11.1413 O.2     1  UNL1       -0.2679
     12 C          62.3155   85.4742   10.4511 C.ar    1  UNL1        0.0102
     13 C          61.9792   84.8783   11.7859 C.ar    1  UNL1        0.0017
     14 C          62.5804   83.5662   12.1945 C.ar    1  UNL1        0.0114
     15 C          63.5179   82.8501   11.2681 C.ar    1  UNL1        0.0585
     16 CL         64.1191   81.5379   11.6767 Cl      1  UNL1       -0.0822
     17 C          63.8542   83.4459    9.9333 C.ar    1  UNL1        0.0228
     18 C          63.2530   84.7581    9.5247 C.ar    1  UNL1        0.0585
     19 CL         63.5893   85.3539    8.1899 Cl      1  UNL1       -0.0822
     20 C          63.8878   90.4802   13.1994 C.ar    1  UNL1        0.0545
     21 C          65.0210   91.3753   12.7938 C.ar    1  UNL1        0.0149
     22 C          65.8360   92.0748   13.8410 C.ar    1  UNL1        0.0013
     23 C          65.5177   91.8792   15.2937 C.ar    1  UNL1        0.0001
     24 C          64.3845   90.9841   15.6993 C.ar    1  UNL1        0.0013
     25 C          63.5696   90.2846   14.6521 C.ar    1  UNL1        0.0149
     26 C          60.3026   85.5747    8.2288 C.3     1  UNL1        0.0934
     27 N          60.6564   85.3734    6.7851 N.3     1  UNL1       -0.3174
     28 H          60.1562   86.0548    6.2143 H       1  UNL1        0.1192
     29 H          60.3925   84.4307    6.4987 H       1  UNL1        0.1192
@<TRIPOS>BOND
     1     1     2    1
     2     2     3   ar
     3     3     4   ar
     4     4     5   ar
     5     5     6   ar
     6     6    12    1
     7    12    13   ar
     8    13    14   ar
     9    14    15   ar
    10    15    16    1
    11    15    17   ar
    12    17    18   ar
    13    18    19    1
    14     6     7   ar
    15     7    26    1
    16    26    27    1
    17     5     8    1
    18     8     9    1
    19     9    20    1
    20    20    21   ar
    21    21    22   ar
    22    22    23   ar
    23    23    24   ar
    24    24    25   ar
    25     9    10   am
    26    10    11    2
    27     7     2   ar
    28    25    20   ar
    29    10     4    1
    30    18    12   ar
    31    27    28    1
    32    27    29    1
@<TRIPOS>MOLECULE
*****
 29 32 0 0 0
SMALL
GASTEIGER

@<TRIPOS>ATOM
      1 C          66.9890   92.4775   16.7830 C.3     1  UNL1        0.0518
      2 C          66.3169   92.1225   15.4897 C.ar    1  UNL1        0.0568
      3 N          65.0372   91.3401   15.4997 N.ar    1  UNL1       -0.2456
      4 C          64.3651   90.9851   14.2065 C.ar    1  UNL1        0.1322
      5 C          64.9728   91.4125   12.9034 C.ar    1  UNL1        0.0200
      6 C          66.2525   92.1949   12.8934 C.ar    1  UNL1       -0.0015
      7 C          66.9246   92.5499   14.1867 C.ar    1  UNL1        0.0068
      8 C          64.0889   90.9200   11.7961 C.3     1  UNL1        0.1267
      9 N          62.9349   90.1882   12.4148 N.am    1  UNL1       -0.2496
     10 C          63.1056   90.2284   13.9046 C.2     1  UNL1        0.2705
     11 O          62.1795   89.6190   14.9149 O.2     1  UNL1       -0.2679
     12 C          66.8602   92.6223   11.5903 C.ar    1  UNL1        0.0102
     13 C          67.7647   91.6882   10.8425 C.ar    1  UNL1        0.0017
     14 C          68.3725   92.1155    9.5394 C.ar    1  UNL1        0.0114
     15 C          68.0757   93.4770    8.9843 C.ar    1  UNL1        0.0585
     16 CL         68.6835   93.9044    7.6812 Cl      1  UNL1       -0.0822
     17 C          67.1713   94.4112    9.7322 C.ar    1  UNL1        0.0228
     18 C          66.5635   93.9838   11.0352 C.ar    1  UNL1        0.0585
     19 CL         65.6590   94.9180   11.7831 Cl      1  UNL1       -0.0822
     20 C          61.8080   89.5315   11.6740 C.ar    1  UNL1        0.0545
     21 C          60.3875   89.8245   12.0564 C.ar    1  UNL1        0.0149
     22 C          59.2607   89.1677   11.3155 C.ar    1  UNL1        0.0013
     23 C          59.5543   88.2181   10.1922 C.ar    1  UNL1        0.0001
     24 C          60.9748   87.9251    9.8097 C.ar    1  UNL1        0.0013
     25 C          62.1016   88.5819   10.5506 C.ar    1  UNL1        0.0149
     26 C          68.2044   93.3323   14.1768 C.3     1  UNL1        0.0934
     27 N          69.5164   92.6265   14.3510 N.3     1  UNL1       -0.3174
     28 H          69.5666   92.2289   15.2890 H       1  UNL1        0.1192
     29 H          70.2796   93.2907   14.2219 H       1  UNL1        0.1192
@<TRIPOS>BOND
     1     1     2    1
     2     2     3   ar
     3     3     4   ar
     4     4     5   ar
     5     5     6   ar
     6     6    12    1
     7    12    13   ar
     8    13    14   ar
     9    14    15   ar
    10    15    16    1
    11    15    17   ar
    12    17    18   ar
    13    18    19    1
    14     6     7   ar
    15     7    26    1
    16    26    27    1
    17     5     8    1
    18     8     9    1
    19     9    20    1
    20    20    21   ar
    21    21    22   ar
    22    22    23   ar
    23    23    24   ar
    24    24    25   ar
    25     9    10   am
    26    10    11    2
    27     7     2   ar
    28    25    20   ar
    29    10     4    1
    30    18    12   ar
    31    27    28    1
    32    27    29    1
@<TRIPOS>MOLECULE
*****
 29 32 0 0 0
SMALL
GASTEIGER

@<TRIPOS>ATOM
      1 C          65.1297   89.1185   15.2366 C.3     1  UNL1        0.0518
      2 C          64.3107   88.4097   14.1988 C.ar    1  UNL1        0.0568
      3 N          63.5932   89.1973   13.1430 N.ar    1  UNL1       -0.2456
      4 C          62.7742   88.4885   12.1053 C.ar    1  UNL1        0.1322
      5 C          62.6728   86.9921   12.1233 C.ar    1  UNL1        0.0200
      6 C          63.3903   86.2044   13.1791 C.ar    1  UNL1       -0.0015
      7 C          64.2093   86.9133   14.2168 C.ar    1  UNL1        0.0068
      8 C          61.7978   86.5729   10.9794 C.3     1  UNL1        0.1267
      9 N          61.3584   87.8103   10.2543 N.am    1  UNL1       -0.2496
     10 C          61.9618   88.9943   10.9502 C.2     1  UNL1        0.2705
     11 O          61.7841   90.4315   10.5594 O.2     1  UNL1       -0.2679
     12 C          63.2890   84.7079   13.1972 C.ar    1  UNL1        0.0102
     13 C          63.9502   83.8984   12.1213 C.ar    1  UNL1        0.0017
     14 C          63.8489   82.4019   12.1394 C.ar    1  UNL1        0.0114
     15 C          63.0864   81.7150   13.2333 C.ar    1  UNL1        0.0585
     16 CL         62.9851   80.2186   13.2513 Cl      1  UNL1       -0.0822
     17 C          62.4252   82.5245   14.3091 C.ar    1  UNL1        0.0228
     18 C          62.5265   84.0210   14.2911 C.ar    1  UNL1        0.0585
     19 CL         61.8652   84.8305   15.3669 Cl      1  UNL1       -0.0822
     20 C          60.4713   87.8559    9.0456 C.ar    1  UNL1        0.0545
     21 C          60.1629   89.1696    8.3907 C.ar    1  UNL1        0.0149
     22 C          59.2758   89.2151    7.1820 C.ar    1  UNL1        0.0013
     23 C          58.6970   87.9469    6.6282 C.ar    1  UNL1        0.0001
     24 C          59.0054   86.6331    7.2831 C.ar    1  UNL1        0.0013
     25 C          59.8926   86.5877    8.4918 C.ar    1  UNL1        0.0149
     26 C          64.9269   86.1256   15.2727 C.3     1  UNL1        0.0934
     27 N          66.2474   85.4850   14.9629 N.3     1  UNL1       -0.3174
     28 H          66.1149   84.7534   14.2646 H       1  UNL1        0.1192
     29 H          66.6352   85.0770   15.8135 H       1  UNL1        0.1192
@<TRIPOS>BOND
     1     1     2    1
     2     2     3   ar
     3     3     4   ar
     4     4     5   ar
     5     5     6   ar
     6     6    12    1
     7    12    13   ar
     8    13    14   ar
     9    14    15   ar
    10    15    16    1
    11    15    17   ar
    12    17    18   ar
    13    18    19    1
    14     6     7   ar
    15     7    26    1
    16    26    27    1
    17     5     8    1
    18     8     9    1
    19     9    20    1
    20    20    21   ar
    21    21    22   ar
    22    22    23   ar
    23    23    24   ar
    24    24    25   ar
    25     9    10   am
    26    10    11    2
    27     7     2   ar
    28    25    20   ar
    29    10     4    1
    30    18    12   ar
    31    27    28    1
    32    27    29    1
