@<TRIPOS>MOLECULE
*****
 46 49 0 0 0
SMALL
GASTEIGER

@<TRIPOS>ATOM
      1 C          62.6440   88.1306   11.8095 C.3     1  UNL1        0.1043
      2 C          63.5697   90.1875   13.0987 C.2     1  UNL1        0.2482
      3 O          62.5260   89.9932   14.1583 O.2     1  UNL1       -0.2701
      4 N          63.6287   89.2562   11.9243 N.am    1  UNL1       -0.2997
      5 H          64.3138   89.3837   11.2288 H       1  UNL1        0.1498
      6 C          66.1735   92.7484   14.6518 C.ar    1  UNL1        0.0462
      7 C          65.1887   91.6228   14.5370 C.ar    1  UNL1        0.0212
      8 C          64.5546   91.3131   13.2134 C.ar    1  UNL1        0.0832
      9 C          64.9052   92.1290   12.0045 C.ar    1  UNL1        0.1581
     10 F          64.2711   91.8193   10.6809 F       1  UNL1       -0.2027
     11 C          65.8900   93.2546   12.1193 C.ar    1  UNL1        0.0827
     12 C          66.5241   93.5643   13.4429 C.ar    1  UNL1        0.0315
     13 N          66.2407   94.0705   10.9104 N.am    1  UNL1       -0.2566
     14 C          65.7598   95.4603   10.6149 C.3     1  UNL1        0.0988
     15 C          66.3557   95.8887    9.3068 C.3     1  UNL1        0.0315
     16 C          67.2049   94.7636    8.7937 C.3     1  UNL1        0.0874
     17 C          67.1338   93.6400    9.7848 C.2     1  UNL1        0.2294
     18 O          67.8330   92.3179    9.6704 O.2     1  UNL1       -0.2745
     19 N          66.8076   93.0581   15.9754 N.pl3   1  UNL1       -0.3326
     20 H          66.2624   93.4245   16.7087 H       1  UNL1        0.1468
     21 C          69.2580   93.9215   15.9764 C.3     1  UNL1        0.0229
     22 C          68.2724   92.8096   16.1817 C.3     1  UNL1        0.0871
     23 C          62.8186   86.8936   12.6399 C.3     1  UNL1        0.1443
     24 O          61.9207   85.7117   12.4231 O.3     1  UNL1       -0.3813
     25 H          61.2882   85.9118   11.7154 H       1  UNL1        0.2105
     26 C          63.8911   86.8385   13.6871 C.3     1  UNL1        0.1001
     27 N          63.9465   85.6847   14.6439 N.3     1  UNL1       -0.2917
     28 H          62.9849   85.3784   14.7919 H       1  UNL1        0.1236
     29 C          64.7423   84.4611   14.2980 C.3     1  UNL1        0.0957
     30 C          64.1553   83.4141   13.3985 C.ar    1  UNL1       -0.0064
     31 C          64.5733   83.3414   11.9598 C.ar    1  UNL1       -0.0029
     32 C          63.9862   82.2944   11.0601 C.ar    1  UNL1       -0.0003
     33 C          62.9811   81.3201   11.5993 C.ar    1  UNL1        0.0038
     34 C          62.5631   81.3929   13.0381 C.ar    1  UNL1        0.0712
     35 C          63.1502   82.4399   13.9376 C.ar    1  UNL1        0.0009
     36 C          61.5580   80.4187   13.5773 C.3     1  UNL1        0.4186
     37 F          60.5530   79.4445   14.1165 F       1  UNL1       -0.1659
     38 F          60.8805   81.5302   14.3227 F       1  UNL1       -0.1659
     39 F          62.2356   79.3072   12.8319 F       1  UNL1       -0.1659
     40 C          61.4845   88.2418   10.8644 C.3     1  UNL1        0.0484
     41 C          61.3766   87.3068    9.6964 C.ar    1  UNL1       -0.0204
     42 C          62.5731   86.5173    9.2547 C.ar    1  UNL1       -0.0042
     43 C          62.4652   85.5823    8.0868 C.ar    1  UNL1       -0.0003
     44 C          61.1608   85.4367    7.3606 C.ar    1  UNL1       -0.0000
     45 C          59.9643   86.2262    7.8023 C.ar    1  UNL1       -0.0003
     46 C          60.0722   87.1612    8.9702 C.ar    1  UNL1       -0.0042
@<TRIPOS>BOND
     1    21    22    1
     2    22    19    1
     3    19     6    1
     4     6     7   ar
     5     7     8   ar
     6     8     2    1
     7     2     3    2
     8     2     4   am
     9     4     1    1
    10     1    40    1
    11    40    41    1
    12    41    42   ar
    13    42    43   ar
    14    43    44   ar
    15    44    45   ar
    16    45    46   ar
    17     1    23    1
    18    23    24    1
    19    23    26    1
    20    26    27    1
    21    27    29    1
    22    29    30    1
    23    30    31   ar
    24    31    32   ar
    25    32    33   ar
    26    33    34   ar
    27    34    36    1
    28    36    37    1
    29    36    38    1
    30    36    39    1
    31    34    35   ar
    32     8     9   ar
    33     9    10    1
    34     9    11   ar
    35    11    13    1
    36    13    14    1
    37    14    15    1
    38    15    16    1
    39    16    17    1
    40    17    18    2
    41    11    12   ar
    42    12     6   ar
    43    46    41   ar
    44    35    30   ar
    45    17    13   am
    46    19    20    1
    47     4     5    1
    48    24    25    1
    49    27    28    1
@<TRIPOS>MOLECULE
*****
 46 49 0 0 0
SMALL
GASTEIGER

@<TRIPOS>ATOM
      1 C          62.5725   88.2187   11.7176 C.3     1  UNL1        0.1043
      2 C          63.5432   90.1999   13.0897 C.2     1  UNL1        0.2482
      3 O          62.4970   89.9833   14.1425 O.2     1  UNL1       -0.2701
      4 N          63.5809   89.3175   11.8772 N.am    1  UNL1       -0.2997
      5 H          64.2676   89.4596   11.1862 H       1  UNL1        0.1498
      6 C          66.1638   92.6720   14.7543 C.ar    1  UNL1        0.0462
      7 C          65.1553   91.5732   14.5947 C.ar    1  UNL1        0.0212
      8 C          64.5517   91.2988   13.2492 C.ar    1  UNL1        0.0832
      9 C          64.9566   92.1232   12.0633 C.ar    1  UNL1        0.1581
     10 F          64.3529   91.8487   10.7178 F       1  UNL1       -0.2027
     11 C          65.9650   93.2220   12.2229 C.ar    1  UNL1        0.0827
     12 C          66.5686   93.4964   13.5684 C.ar    1  UNL1        0.0315
     13 N          66.3699   94.0465   11.0370 N.am    1  UNL1       -0.2566
     14 C          66.8898   93.5190    9.7325 C.3     1  UNL1        0.0988
     15 C          67.1672   94.6896    8.8366 C.3     1  UNL1        0.0315
     16 C          66.8188   95.9407    9.5874 C.3     1  UNL1        0.0874
     17 C          66.3260   95.5431   10.9473 C.2     1  UNL1        0.2294
     18 O          65.8695   96.4782   12.0277 O.2     1  UNL1       -0.2745
     19 N          66.7674   92.9465   16.0998 N.pl3   1  UNL1       -0.3326
     20 H          66.1916   93.2134   16.8524 H       1  UNL1        0.1468
     21 C          69.1392   94.0068   16.1144 C.3     1  UNL1        0.0229
     22 C          68.2483   92.8142   16.2985 C.3     1  UNL1        0.0871
     23 C          62.7483   86.9260   12.4581 C.3     1  UNL1        0.1443
     24 O          61.7758   85.8034   12.2484 O.3     1  UNL1       -0.3813
     25 H          61.1001   86.0762   11.6082 H       1  UNL1        0.2105
     26 C          63.8965   86.7560   13.4082 C.3     1  UNL1        0.1001
     27 N          63.8591   85.6712   14.4433 N.3     1  UNL1       -0.2917
     28 H          62.8767   85.5093   14.6648 H       1  UNL1        0.1236
     29 C          64.4627   84.3303   14.1468 C.3     1  UNL1        0.0957
     30 C          63.5780   83.1692   13.8019 C.ar    1  UNL1       -0.0064
     31 C          62.5111   82.7288   14.7600 C.ar    1  UNL1       -0.0029
     32 C          61.6263   81.5676   14.4152 C.ar    1  UNL1       -0.0003
     33 C          61.8084   80.8469   13.1123 C.ar    1  UNL1        0.0038
     34 C          62.8753   81.2874   12.1543 C.ar    1  UNL1        0.0712
     35 C          63.7601   82.4485   12.4991 C.ar    1  UNL1        0.0009
     36 C          63.0574   80.5666   10.8514 C.3     1  UNL1        0.4186
     37 F          63.2395   79.8459    9.5486 F       1  UNL1       -0.1659
     38 F          63.4822   81.8498   10.2010 F       1  UNL1       -0.1659
     39 F          62.6327   79.2835   11.5019 F       1  UNL1       -0.1659
     40 C          61.3883   88.4124   10.8176 C.3     1  UNL1        0.0484
     41 C          61.1616   87.4794    9.6651 C.ar    1  UNL1       -0.0204
     42 C          59.8147   87.4122    9.0083 C.ar    1  UNL1       -0.0042
     43 C          59.5880   86.4792    7.8558 C.ar    1  UNL1       -0.0003
     44 C          60.7082   85.6135    7.3602 C.ar    1  UNL1       -0.0000
     45 C          62.0550   85.6807    8.0170 C.ar    1  UNL1       -0.0003
     46 C          62.2817   86.6136    9.1695 C.ar    1  UNL1       -0.0042
@<TRIPOS>BOND
     1    21    22    1
     2    22    19    1
     3    19     6    1
     4     6     7   ar
     5     7     8   ar
     6     8     2    1
     7     2     3    2
     8     2     4   am
     9     4     1    1
    10     1    40    1
    11    40    41    1
    12    41    42   ar
    13    42    43   ar
    14    43    44   ar
    15    44    45   ar
    16    45    46   ar
    17     1    23    1
    18    23    24    1
    19    23    26    1
    20    26    27    1
    21    27    29    1
    22    29    30    1
    23    30    31   ar
    24    31    32   ar
    25    32    33   ar
    26    33    34   ar
    27    34    36    1
    28    36    37    1
    29    36    38    1
    30    36    39    1
    31    34    35   ar
    32     8     9   ar
    33     9    10    1
    34     9    11   ar
    35    11    13    1
    36    13    14    1
    37    14    15    1
    38    15    16    1
    39    16    17    1
    40    17    18    2
    41    11    12   ar
    42    12     6   ar
    43    46    41   ar
    44    35    30   ar
    45    17    13   am
    46    19    20    1
    47     4     5    1
    48    24    25    1
    49    27    28    1
@<TRIPOS>MOLECULE
*****
 46 49 0 0 0
SMALL
GASTEIGER

@<TRIPOS>ATOM
      1 C          61.8602   88.3740   10.8178 C.3     1  UNL1        0.1043
      2 C          63.0586   90.0369   12.4141 C.2     1  UNL1        0.2482
      3 O          62.0794   89.7008   13.4995 O.2     1  UNL1       -0.2701
      4 N          62.9490   89.3735   11.0733 N.am    1  UNL1       -0.2997
      5 H          63.5917   89.5941   10.3609 H       1  UNL1        0.1498
      6 C          65.8363   92.1580   14.2945 C.ar    1  UNL1        0.0462
      7 C          64.7474   91.1585   14.0390 C.ar    1  UNL1        0.0212
      8 C          64.1475   91.0365   12.6696 C.ar    1  UNL1        0.0832
      9 C          64.6365   91.9139   11.5556 C.ar    1  UNL1        0.1581
     10 F          64.0367   91.7919   10.1862 F       1  UNL1       -0.2027
     11 C          65.7254   92.9134   11.8111 C.ar    1  UNL1        0.0827
     12 C          66.3253   93.0355   13.1805 C.ar    1  UNL1        0.0315
     13 N          66.2145   93.7910   10.6972 N.am    1  UNL1       -0.2566
     14 C          65.7473   95.1859   10.4036 C.3     1  UNL1        0.0988
     15 C          66.5006   95.6847    9.2063 C.3     1  UNL1        0.0315
     16 C          67.4334   94.5981    8.7598 C.3     1  UNL1        0.0874
     17 C          67.2565   93.4277    9.6812 C.2     1  UNL1        0.2294
     18 O          67.9925   92.1232    9.6008 O.2     1  UNL1       -0.2745
     19 N          66.4361   92.2801   15.6639 N.pl3   1  UNL1       -0.3326
     20 H          66.0697   91.7532   16.4105 H       1  UNL1        0.1468
     21 C          68.9930   92.6637   15.9189 C.3     1  UNL1        0.0229
     22 C          67.5942   93.2047   15.8957 C.3     1  UNL1        0.0871
     23 C          60.4308   88.8236   10.7468 C.3     1  UNL1        0.1443
     24 O          59.4438   88.3500   11.7723 O.3     1  UNL1       -0.3813
     25 H          59.8899   87.7647   12.4043 H       1  UNL1        0.2105
     26 C          59.9886   89.7467    9.6504 C.3     1  UNL1        0.1001
     27 N          60.4475   89.5121    8.2418 N.3     1  UNL1       -0.2917
     28 H          61.0537   88.6921    8.2623 H       1  UNL1        0.1236
     29 C          59.4411   89.2794    7.1540 C.3     1  UNL1        0.0957
     30 C          59.3015   90.2706    6.0369 C.ar    1  UNL1       -0.0064
     31 C          57.9494   90.8138    5.6809 C.ar    1  UNL1       -0.0029
     32 C          57.8098   91.8051    4.5637 C.ar    1  UNL1       -0.0003
     33 C          59.0222   92.2531    3.8026 C.ar    1  UNL1        0.0038
     34 C          60.3743   91.7098    4.1587 C.ar    1  UNL1        0.0712
     35 C          60.5139   90.7186    5.2758 C.ar    1  UNL1        0.0009
     36 C          61.5868   92.1578    3.3976 C.3     1  UNL1        0.4186
     37 F          62.7993   92.6057    2.6365 F       1  UNL1       -0.1659
     38 F          62.3973   91.0799    4.0544 F       1  UNL1       -0.1659
     39 F          60.7763   93.2356    2.7409 F       1  UNL1       -0.1659
     40 C          62.2005   86.9248   10.6333 C.3     1  UNL1        0.0484
     41 C          61.9247   86.2506    9.3220 C.ar    1  UNL1       -0.0204
     42 C          60.5385   86.2636    8.7490 C.ar    1  UNL1       -0.0042
     43 C          60.2625   85.5895    7.4378 C.ar    1  UNL1       -0.0003
     44 C          61.3728   84.9025    6.6995 C.ar    1  UNL1       -0.0000
     45 C          62.7590   84.8895    7.2724 C.ar    1  UNL1       -0.0003
     46 C          63.0349   85.5636    8.5837 C.ar    1  UNL1       -0.0042
@<TRIPOS>BOND
     1    21    22    1
     2    22    19    1
     3    19     6    1
     4     6     7   ar
     5     7     8   ar
     6     8     2    1
     7     2     3    2
     8     2     4   am
     9     4     1    1
    10     1    40    1
    11    40    41    1
    12    41    42   ar
    13    42    43   ar
    14    43    44   ar
    15    44    45   ar
    16    45    46   ar
    17     1    23    1
    18    23    24    1
    19    23    26    1
    20    26    27    1
    21    27    29    1
    22    29    30    1
    23    30    31   ar
    24    31    32   ar
    25    32    33   ar
    26    33    34   ar
    27    34    36    1
    28    36    37    1
    29    36    38    1
    30    36    39    1
    31    34    35   ar
    32     8     9   ar
    33     9    10    1
    34     9    11   ar
    35    11    13    1
    36    13    14    1
    37    14    15    1
    38    15    16    1
    39    16    17    1
    40    17    18    2
    41    11    12   ar
    42    12     6   ar
    43    46    41   ar
    44    35    30   ar
    45    17    13   am
    46    19    20    1
    47     4     5    1
    48    24    25    1
    49    27    28    1
@<TRIPOS>MOLECULE
*****
 46 49 0 0 0
SMALL
GASTEIGER

@<TRIPOS>ATOM
      1 C          61.7249   88.3357   10.6598 C.3     1  UNL1        0.1043
      2 C          63.0900   90.1216   11.9624 C.2     1  UNL1        0.2482
      3 O          62.2558   89.8689   13.1831 O.2     1  UNL1       -0.2701
      4 N          62.8245   89.3550   10.7007 N.am    1  UNL1       -0.2997
      5 H          63.3720   89.5209    9.8995 H       1  UNL1        0.1498
      6 C          65.5199   93.0624   10.8681 C.ar    1  UNL1        0.0462
      7 C          64.4203   92.0431   10.8272 C.ar    1  UNL1        0.0212
      8 C          64.1897   91.1410   12.0033 C.ar    1  UNL1        0.0832
      9 C          65.0588   91.2582   13.2202 C.ar    1  UNL1        0.1581
     10 F          64.8283   90.3561   14.3962 F       1  UNL1       -0.2027
     11 C          66.1585   92.2775   13.2610 C.ar    1  UNL1        0.0827
     12 C          66.3890   93.1796   12.0849 C.ar    1  UNL1        0.0315
     13 N          67.0276   92.3948   14.4779 N.am    1  UNL1       -0.2566
     14 C          68.5270   92.3558   14.4976 C.3     1  UNL1        0.0988
     15 C          68.9761   92.5086   15.9206 C.3     1  UNL1        0.0315
     16 C          67.7542   92.6420   16.7804 C.3     1  UNL1        0.0874
     17 C          66.5500   92.5717   15.8888 C.2     1  UNL1        0.2294
     18 O          65.1194   92.6624   16.3306 O.2     1  UNL1       -0.2745
     19 N          65.7504   93.9645    9.6920 N.pl3   1  UNL1       -0.3326
     20 H          65.5632   93.6427    8.7806 H       1  UNL1        0.1468
     21 C          67.1452   95.9969    8.8712 C.3     1  UNL1        0.0229
     22 C          66.2663   95.3568    9.9045 C.3     1  UNL1        0.0871
     23 C          60.2925   88.7740   10.7395 C.3     1  UNL1        0.1443
     24 O          59.4463   88.3629   11.9078 O.3     1  UNL1       -0.3813
     25 H          59.9744   87.8210   12.5147 H       1  UNL1        0.2105
     26 C          59.7064   89.6234    9.6510 C.3     1  UNL1        0.1001
     27 N          60.3088   89.6032    8.2774 N.3     1  UNL1       -0.2917
     28 H          61.0514   88.9041    8.2919 H       1  UNL1        0.1236
     29 C          59.4499   89.2979    7.0861 C.3     1  UNL1        0.0957
     30 C          59.3222   90.2998    5.9771 C.ar    1  UNL1       -0.0064
     31 C          57.9798   90.8775    5.6392 C.ar    1  UNL1       -0.0029
     32 C          57.8520   91.8794    4.5302 C.ar    1  UNL1       -0.0003
     33 C          59.0667   92.3035    3.7591 C.ar    1  UNL1        0.0038
     34 C          60.4092   91.7258    4.0970 C.ar    1  UNL1        0.0712
     35 C          60.5369   90.7239    5.2060 C.ar    1  UNL1        0.0009
     36 C          61.6238   92.1499    3.3259 C.3     1  UNL1        0.4186
     37 F          62.8385   92.5741    2.5548 F       1  UNL1       -0.1659
     38 F          60.8117   93.1966    2.6223 F       1  UNL1       -0.1659
     39 F          62.4360   91.1033    4.0295 F       1  UNL1       -0.1659
     40 C          62.0575   86.8780   10.5391 C.3     1  UNL1        0.0484
     41 C          61.8645   86.1705    9.2306 C.ar    1  UNL1       -0.0204
     42 C          63.0162   85.4569    8.5868 C.ar    1  UNL1       -0.0042
     43 C          62.8233   84.7495    7.2783 C.ar    1  UNL1       -0.0003
     44 C          61.4786   84.7555    6.6136 C.ar    1  UNL1       -0.0000
     45 C          60.3269   85.4691    7.2574 C.ar    1  UNL1       -0.0003
     46 C          60.5199   86.1766    8.5659 C.ar    1  UNL1       -0.0042
@<TRIPOS>BOND
     1    21    22    1
     2    22    19    1
     3    19     6    1
     4     6     7   ar
     5     7     8   ar
     6     8     2    1
     7     2     3    2
     8     2     4   am
     9     4     1    1
    10     1    40    1
    11    40    41    1
    12    41    42   ar
    13    42    43   ar
    14    43    44   ar
    15    44    45   ar
    16    45    46   ar
    17     1    23    1
    18    23    24    1
    19    23    26    1
    20    26    27    1
    21    27    29    1
    22    29    30    1
    23    30    31   ar
    24    31    32   ar
    25    32    33   ar
    26    33    34   ar
    27    34    36    1
    28    36    37    1
    29    36    38    1
    30    36    39    1
    31    34    35   ar
    32     8     9   ar
    33     9    10    1
    34     9    11   ar
    35    11    13    1
    36    13    14    1
    37    14    15    1
    38    15    16    1
    39    16    17    1
    40    17    18    2
    41    11    12   ar
    42    12     6   ar
    43    46    41   ar
    44    35    30   ar
    45    17    13   am
    46    19    20    1
    47     4     5    1
    48    24    25    1
    49    27    28    1
@<TRIPOS>MOLECULE
*****
 46 49 0 0 0
SMALL
GASTEIGER

@<TRIPOS>ATOM
      1 C          61.1560   89.8478   10.8927 C.3     1  UNL1        0.1043
      2 C          63.3800   90.4567   12.0899 C.2     1  UNL1        0.2482
      3 O          63.5459   89.0261   12.5093 O.2     1  UNL1       -0.2701
      4 N          62.1850   90.8675   11.2816 N.am    1  UNL1       -0.2997
      5 H          62.0762   91.8065   11.0063 H       1  UNL1        0.1498
      6 C          65.9174   92.5745   14.2868 C.ar    1  UNL1        0.0462
      7 C          64.8884   91.5548   13.8979 C.ar    1  UNL1        0.0212
      8 C          64.4091   91.4764   12.4787 C.ar    1  UNL1        0.0832
      9 C          64.9587   92.4178   11.4484 C.ar    1  UNL1        0.1581
     10 F          64.4794   92.3395   10.0292 F       1  UNL1       -0.2027
     11 C          65.9878   93.4375   11.8373 C.ar    1  UNL1        0.0827
     12 C          66.4671   93.5158   13.2564 C.ar    1  UNL1        0.0315
     13 N          66.5375   94.3790   10.8069 N.am    1  UNL1       -0.2566
     14 C          67.2398   93.9877    9.5405 C.3     1  UNL1        0.0988
     15 C          67.6178   95.2438    8.8130 C.3     1  UNL1        0.0315
     16 C          67.1491   96.4114    9.6298 C.3     1  UNL1        0.0874
     17 C          66.4814   95.8769   10.8620 C.2     1  UNL1        0.2294
     18 O          65.8658   96.6964   11.9572 O.2     1  UNL1       -0.2745
     19 N          66.3968   92.6528   15.7059 N.pl3   1  UNL1       -0.3326
     20 H          65.8635   92.2495   16.4286 H       1  UNL1        0.1468
     21 C          68.9808   92.5860   15.9673 C.3     1  UNL1        0.0229
     22 C          67.6886   93.3455   16.0241 C.3     1  UNL1        0.0871
     23 C          60.5583   88.9501   11.9353 C.3     1  UNL1        0.1443
     24 O          59.8313   89.5413   13.1067 O.3     1  UNL1       -0.3813
     25 H          59.8395   90.5088   13.0375 H       1  UNL1        0.2105
     26 C          60.6876   87.4613   11.8066 C.3     1  UNL1        0.1001
     27 N          62.0399   86.8392   11.6211 N.3     1  UNL1       -0.2917
     28 H          62.7248   87.5884   11.7213 H       1  UNL1        0.1236
     29 C          62.4826   85.7245   12.5220 C.3     1  UNL1        0.0957
     30 C          62.8350   84.3867   11.9422 C.ar    1  UNL1       -0.0064
     31 C          63.5288   84.3038   10.6149 C.ar    1  UNL1       -0.0029
     32 C          63.8812   82.9660   10.0351 C.ar    1  UNL1       -0.0003
     33 C          63.5398   81.7111   10.7826 C.ar    1  UNL1        0.0038
     34 C          62.8460   81.7941   12.1099 C.ar    1  UNL1        0.0712
     35 C          62.4936   83.1318   12.6897 C.ar    1  UNL1        0.0009
     36 C          62.5046   80.5392   12.8575 C.3     1  UNL1        0.4186
     37 F          62.1632   79.2844   13.6050 F       1  UNL1       -0.1659
     38 F          62.7505   79.7332   11.6166 F       1  UNL1       -0.1659
     39 F          62.2587   81.3453   14.0983 F       1  UNL1       -0.1659
     40 C          60.7245   89.7258    9.4613 C.3     1  UNL1        0.0484
     41 C          60.5835   88.3709    8.8334 C.ar    1  UNL1       -0.0204
     42 C          61.7557   87.4356    8.7968 C.ar    1  UNL1       -0.0042
     43 C          61.6147   86.0807    8.1689 C.ar    1  UNL1       -0.0003
     44 C          60.3017   85.6610    7.5776 C.ar    1  UNL1       -0.0000
     45 C          59.1295   86.5963    7.6142 C.ar    1  UNL1       -0.0003
     46 C          59.2704   87.9512    8.2421 C.ar    1  UNL1       -0.0042
@<TRIPOS>BOND
     1    21    22    1
     2    22    19    1
     3    19     6    1
     4     6     7   ar
     5     7     8   ar
     6     8     2    1
     7     2     3    2
     8     2     4   am
     9     4     1    1
    10     1    40    1
    11    40    41    1
    12    41    42   ar
    13    42    43   ar
    14    43    44   ar
    15    44    45   ar
    16    45    46   ar
    17     1    23    1
    18    23    24    1
    19    23    26    1
    20    26    27    1
    21    27    29    1
    22    29    30    1
    23    30    31   ar
    24    31    32   ar
    25    32    33   ar
    26    33    34   ar
    27    34    36    1
    28    36    37    1
    29    36    38    1
    30    36    39    1
    31    34    35   ar
    32     8     9   ar
    33     9    10    1
    34     9    11   ar
    35    11    13    1
    36    13    14    1
    37    14    15    1
    38    15    16    1
    39    16    17    1
    40    17    18    2
    41    11    12   ar
    42    12     6   ar
    43    46    41   ar
    44    35    30   ar
    45    17    13   am
    46    19    20    1
    47     4     5    1
    48    24    25    1
    49    27    28    1
@<TRIPOS>MOLECULE
*****
 46 49 0 0 0
SMALL
GASTEIGER

@<TRIPOS>ATOM
      1 C          63.9975   87.5072   14.5800 C.3     1  UNL1        0.1043
      2 C          64.2139   90.0750   14.2489 C.2     1  UNL1        0.2482
      3 O          62.7193   90.2014   14.2517 O.2     1  UNL1       -0.2701
      4 N          64.8530   88.7279   14.4130 N.am    1  UNL1       -0.2997
      5 H          65.8340   88.6450   14.4112 H       1  UNL1        0.1498
      6 C          66.6128   93.1186   15.1044 C.ar    1  UNL1        0.0462
      7 C          65.7572   91.8980   15.2713 C.ar    1  UNL1        0.0212
      8 C          65.0696   91.2957   14.0819 C.ar    1  UNL1        0.0832
      9 C          65.2376   91.9141   12.7257 C.ar    1  UNL1        0.1581
     10 F          64.5500   91.3118   11.5364 F       1  UNL1       -0.2027
     11 C          66.0932   93.1348   12.5589 C.ar    1  UNL1        0.0827
     12 C          66.7808   93.7370   13.7482 C.ar    1  UNL1        0.0315
     13 N          66.2612   93.7532   11.2026 N.am    1  UNL1       -0.2566
     14 C          65.6222   95.0246   10.7280 C.3     1  UNL1        0.0988
     15 C          66.0637   95.2661    9.3150 C.3     1  UNL1        0.0315
     16 C          66.9757   94.1438    8.9162 C.3     1  UNL1        0.0874
     17 C          67.0977   93.2088   10.0828 C.2     1  UNL1        0.2294
     18 O          67.9131   91.9505   10.1226 O.2     1  UNL1       -0.2745
     19 N          67.3004   93.7209   16.2937 N.pl3   1  UNL1       -0.3326
     20 H          66.7746   93.9957   17.0794 H       1  UNL1        0.1468
     21 C          69.6903   92.7177   16.1149 C.3     1  UNL1        0.0229
     22 C          68.7890   93.9045   16.2859 C.3     1  UNL1        0.0871
     23 C          63.3227   87.2380   15.8923 C.3     1  UNL1        0.1443
     24 O          62.4852   88.3023   16.5373 O.3     1  UNL1       -0.3813
     25 H          62.4850   89.0959   15.9795 H       1  UNL1        0.2105
     26 C          63.4853   85.9046   16.5597 C.3     1  UNL1        0.1001
     27 N          63.6546   84.6664   15.7301 N.3     1  UNL1       -0.2917
     28 H          64.3632   84.0968   16.1924 H       1  UNL1        0.1236
     29 C          62.4797   83.7703   15.4716 C.3     1  UNL1        0.0957
     30 C          62.5349   82.7626   14.3620 C.ar    1  UNL1       -0.0064
     31 C          61.8536   81.4356   14.5195 C.ar    1  UNL1       -0.0029
     32 C          61.9087   80.4277   13.4098 C.ar    1  UNL1       -0.0003
     33 C          62.6452   80.7469   12.1427 C.ar    1  UNL1        0.0038
     34 C          63.3266   82.0740   11.9852 C.ar    1  UNL1        0.0712
     35 C          63.2714   83.0818   13.0948 C.ar    1  UNL1        0.0009
     36 C          64.0631   82.3932   10.7181 C.3     1  UNL1        0.4186
     37 F          64.7996   82.7124    9.4509 F       1  UNL1       -0.1659
     38 F          64.7369   83.5468   11.4003 F       1  UNL1       -0.1659
     39 F          63.3894   81.2396   10.0359 F       1  UNL1       -0.1659
     40 C          63.8166   86.5557   13.4346 C.3     1  UNL1        0.0484
     41 C          62.9471   86.9366   12.2732 C.ar    1  UNL1       -0.0204
     42 C          62.9453   88.3495   11.7693 C.ar    1  UNL1       -0.0042
     43 C          62.0758   88.7304   10.6079 C.ar    1  UNL1       -0.0003
     44 C          61.2080   87.6986    9.9505 C.ar    1  UNL1       -0.0000
     45 C          61.2098   86.2858   10.4544 C.ar    1  UNL1       -0.0003
     46 C          62.0793   85.9048   11.6158 C.ar    1  UNL1       -0.0042
@<TRIPOS>BOND
     1    21    22    1
     2    22    19    1
     3    19     6    1
     4     6     7   ar
     5     7     8   ar
     6     8     2    1
     7     2     3    2
     8     2     4   am
     9     4     1    1
    10     1    40    1
    11    40    41    1
    12    41    42   ar
    13    42    43   ar
    14    43    44   ar
    15    44    45   ar
    16    45    46   ar
    17     1    23    1
    18    23    24    1
    19    23    26    1
    20    26    27    1
    21    27    29    1
    22    29    30    1
    23    30    31   ar
    24    31    32   ar
    25    32    33   ar
    26    33    34   ar
    27    34    36    1
    28    36    37    1
    29    36    38    1
    30    36    39    1
    31    34    35   ar
    32     8     9   ar
    33     9    10    1
    34     9    11   ar
    35    11    13    1
    36    13    14    1
    37    14    15    1
    38    15    16    1
    39    16    17    1
    40    17    18    2
    41    11    12   ar
    42    12     6   ar
    43    46    41   ar
    44    35    30   ar
    45    17    13   am
    46    19    20    1
    47     4     5    1
    48    24    25    1
    49    27    28    1
@<TRIPOS>MOLECULE
*****
 46 49 0 0 0
SMALL
GASTEIGER

@<TRIPOS>ATOM
      1 C          65.6063   92.3940   12.2926 C.3     1  UNL1        0.1043
      2 C          63.4447   90.9841   11.9927 C.2     1  UNL1        0.2482
      3 O          62.8684   91.6042   13.2310 O.2     1  UNL1       -0.2701
      4 N          64.8136   91.3790   11.5235 N.am    1  UNL1       -0.2997
      5 H          65.1919   90.9720   10.7108 H       1  UNL1        0.1498
      6 C          60.8096   89.4028    9.4816 C.ar    1  UNL1        0.0462
      7 C          61.6022   90.4177   10.2507 C.ar    1  UNL1        0.0212
      8 C          62.6521   89.9691   11.2236 C.ar    1  UNL1        0.0832
      9 C          62.9093   88.5054   11.4273 C.ar    1  UNL1        0.1581
     10 F          63.9592   88.0567   12.4002 F       1  UNL1       -0.2027
     11 C          62.1167   87.4905   10.6582 C.ar    1  UNL1        0.0827
     12 C          61.0669   87.9392    9.6853 C.ar    1  UNL1        0.0315
     13 N          62.3739   86.0268   10.8619 N.am    1  UNL1       -0.2566
     14 C          62.1841   85.2680   12.1419 C.3     1  UNL1        0.0988
     15 C          62.5590   83.8372   11.8926 C.3     1  UNL1        0.0315
     16 C          62.9805   83.7116   10.4585 C.3     1  UNL1        0.0874
     17 C          62.8661   85.0649    9.8215 C.2     1  UNL1        0.2294
     18 O          63.1875   85.3977    8.3947 O.2     1  UNL1       -0.2745
     19 N          59.7598   89.8515    8.5087 N.pl3   1  UNL1       -0.3326
     20 H          59.1752   90.6117    8.7312 H       1  UNL1        0.1468
     21 C          59.3625   89.9291    5.9424 C.3     1  UNL1        0.0229
     22 C          59.6007   89.1419    7.1968 C.3     1  UNL1        0.0871
     23 C          66.5187   91.9521   13.3982 C.3     1  UNL1        0.1443
     24 O          68.0010   92.1420   13.2683 O.3     1  UNL1       -0.3813
     25 H          68.1999   92.5609   12.4163 H       1  UNL1        0.2105
     26 C          65.9490   91.3203   14.6335 C.3     1  UNL1        0.1001
     27 N          65.1101   90.0817   14.5238 N.3     1  UNL1       -0.2917
     28 H          65.7488   89.2881   14.5755 H       1  UNL1        0.1236
     29 C          64.0184   89.8246   15.5199 C.3     1  UNL1        0.0957
     30 C          63.7278   88.4233   15.9691 C.ar    1  UNL1       -0.0064
     31 C          62.9061   88.1859   17.2013 C.ar    1  UNL1       -0.0029
     32 C          62.6155   86.7846   17.6507 C.ar    1  UNL1       -0.0003
     33 C          63.1467   85.6206   16.8677 C.ar    1  UNL1        0.0038
     34 C          63.9684   85.8580   15.6354 C.ar    1  UNL1        0.0712
     35 C          64.2590   87.2593   15.1861 C.ar    1  UNL1        0.0009
     36 C          64.4995   84.6940   14.8524 C.3     1  UNL1        0.4186
     37 F          65.0307   83.5300   14.0694 F       1  UNL1       -0.1659
     38 F          63.2626   83.9105   15.1782 F       1  UNL1       -0.1659
     39 F          65.7364   85.4776   14.5266 F       1  UNL1       -0.1659
     40 C          65.4864   93.8508   11.9562 C.3     1  UNL1        0.0484
     41 C          66.1586   94.3953   10.7307 C.ar    1  UNL1       -0.0204
     42 C          67.1301   93.5445    9.9675 C.ar    1  UNL1       -0.0042
     43 C          67.8023   94.0890    8.7421 C.ar    1  UNL1       -0.0003
     44 C          67.5030   95.4842    8.2798 C.ar    1  UNL1       -0.0000
     45 C          66.5315   96.3350    9.0430 C.ar    1  UNL1       -0.0003
     46 C          65.8593   95.7905   10.2684 C.ar    1  UNL1       -0.0042
@<TRIPOS>BOND
     1    21    22    1
     2    22    19    1
     3    19     6    1
     4     6     7   ar
     5     7     8   ar
     6     8     2    1
     7     2     3    2
     8     2     4   am
     9     4     1    1
    10     1    40    1
    11    40    41    1
    12    41    42   ar
    13    42    43   ar
    14    43    44   ar
    15    44    45   ar
    16    45    46   ar
    17     1    23    1
    18    23    24    1
    19    23    26    1
    20    26    27    1
    21    27    29    1
    22    29    30    1
    23    30    31   ar
    24    31    32   ar
    25    32    33   ar
    26    33    34   ar
    27    34    36    1
    28    36    37    1
    29    36    38    1
    30    36    39    1
    31    34    35   ar
    32     8     9   ar
    33     9    10    1
    34     9    11   ar
    35    11    13    1
    36    13    14    1
    37    14    15    1
    38    15    16    1
    39    16    17    1
    40    17    18    2
    41    11    12   ar
    42    12     6   ar
    43    46    41   ar
    44    35    30   ar
    45    17    13   am
    46    19    20    1
    47     4     5    1
    48    24    25    1
    49    27    28    1
@<TRIPOS>MOLECULE
*****
 46 49 0 0 0
SMALL
GASTEIGER

@<TRIPOS>ATOM
      1 C          62.1664   88.9208   11.0442 C.3     1  UNL1        0.1043
      2 C          63.5332   90.3803   12.7030 C.2     1  UNL1        0.2482
      3 O          62.8664   89.6928   13.8574 O.2     1  UNL1       -0.2701
      4 N          63.1832   89.9943   11.2964 N.am    1  UNL1       -0.2997
      5 H          63.6208   90.4456   10.5387 H       1  UNL1        0.1498
      6 C          66.1294   92.7189   14.5847 C.ar    1  UNL1        0.0462
      7 C          65.1126   91.6454   14.3324 C.ar    1  UNL1        0.0212
      8 C          64.5500   91.4539   12.9552 C.ar    1  UNL1        0.0832
      9 C          65.0042   92.3359   11.8302 C.ar    1  UNL1        0.1581
     10 F          64.4416   92.1445   10.4530 F       1  UNL1       -0.2027
     11 C          66.0209   93.4095   12.0824 C.ar    1  UNL1        0.0827
     12 C          66.5836   93.6009   13.4597 C.ar    1  UNL1        0.0315
     13 N          66.4752   94.2916   10.9574 N.am    1  UNL1       -0.2566
     14 C          67.0755   93.8302    9.6625 C.3     1  UNL1        0.0988
     15 C          67.3802   95.0433    8.8345 C.3     1  UNL1        0.0315
     16 C          66.9681   96.2545    9.6178 C.3     1  UNL1        0.0874
     17 C          66.4088   95.7898   10.9297 C.2     1  UNL1        0.2294
     18 O          65.8765   96.6691   12.0222 O.2     1  UNL1       -0.2745
     19 N          66.6920   92.9104   15.9619 N.pl3   1  UNL1       -0.3326
     20 H          66.0975   93.1586   16.7064 H       1  UNL1        0.1468
     21 C          69.0998   93.8825   16.0481 C.3     1  UNL1        0.0229
     22 C          68.1603   92.7237   16.2049 C.3     1  UNL1        0.0871
     23 C          62.5638   87.4768   11.1277 C.3     1  UNL1        0.1443
     24 O          62.8307   86.8485   12.4634 O.3     1  UNL1       -0.3813
     25 H          62.7025   87.5085   13.1626 H       1  UNL1        0.2105
     26 C          62.6943   86.6611    9.8757 C.3     1  UNL1        0.1001
     27 N          62.2855   85.2180    9.8748 N.3     1  UNL1       -0.2917
     28 H          61.9386   85.0108    8.9382 H       1  UNL1        0.1236
     29 C          63.2883   84.1541   10.2103 C.3     1  UNL1        0.0957
     30 C          63.1129   83.3207   11.4451 C.ar    1  UNL1       -0.0064
     31 C          63.0352   81.8266   11.3366 C.ar    1  UNL1       -0.0029
     32 C          62.8598   80.9931   12.5714 C.ar    1  UNL1       -0.0003
     33 C          62.7620   81.6537   13.9145 C.ar    1  UNL1        0.0038
     34 C          62.8397   83.1478   14.0229 C.ar    1  UNL1        0.0712
     35 C          63.0151   83.9813   12.7882 C.ar    1  UNL1        0.0009
     36 C          62.7419   83.8084   15.3661 C.3     1  UNL1        0.4186
     37 F          62.6442   84.4690   16.7092 F       1  UNL1       -0.1659
     38 F          64.0993   83.2803   15.7246 F       1  UNL1       -0.1659
     39 F          61.3845   84.3365   15.0075 F       1  UNL1       -0.1659
     40 C          60.7522   89.2912   10.7083 C.3     1  UNL1        0.0484
     41 C          60.1300   88.7986    9.4354 C.ar    1  UNL1       -0.0204
     42 C          59.5669   87.4101    9.3642 C.ar    1  UNL1       -0.0042
     43 C          58.9447   86.9174    8.0914 C.ar    1  UNL1       -0.0003
     44 C          58.8855   87.8133    6.8898 C.ar    1  UNL1       -0.0000
     45 C          59.4485   89.2018    6.9610 C.ar    1  UNL1       -0.0003
     46 C          60.0708   89.6945    8.2338 C.ar    1  UNL1       -0.0042
@<TRIPOS>BOND
     1    21    22    1
     2    22    19    1
     3    19     6    1
     4     6     7   ar
     5     7     8   ar
     6     8     2    1
     7     2     3    2
     8     2     4   am
     9     4     1    1
    10     1    40    1
    11    40    41    1
    12    41    42   ar
    13    42    43   ar
    14    43    44   ar
    15    44    45   ar
    16    45    46   ar
    17     1    23    1
    18    23    24    1
    19    23    26    1
    20    26    27    1
    21    27    29    1
    22    29    30    1
    23    30    31   ar
    24    31    32   ar
    25    32    33   ar
    26    33    34   ar
    27    34    36    1
    28    36    37    1
    29    36    38    1
    30    36    39    1
    31    34    35   ar
    32     8     9   ar
    33     9    10    1
    34     9    11   ar
    35    11    13    1
    36    13    14    1
    37    14    15    1
    38    15    16    1
    39    16    17    1
    40    17    18    2
    41    11    12   ar
    42    12     6   ar
    43    46    41   ar
    44    35    30   ar
    45    17    13   am
    46    19    20    1
    47     4     5    1
    48    24    25    1
    49    27    28    1
@<TRIPOS>MOLECULE
*****
 46 49 0 0 0
SMALL
GASTEIGER

@<TRIPOS>ATOM
      1 C          61.7788   87.5768   10.8213 C.3     1  UNL1        0.1043
      2 C          62.7593   89.7179   11.9187 C.2     1  UNL1        0.2482
      3 O          61.6291   89.7301   12.9048 O.2     1  UNL1       -0.2701
      4 N          62.8342   88.6412   10.8769 N.am    1  UNL1       -0.2997
      5 H          63.5760   88.6332   10.2297 H       1  UNL1        0.1498
      6 C          65.0837   92.7533   10.8540 C.ar    1  UNL1        0.0462
      7 C          64.0283   91.6889   10.7984 C.ar    1  UNL1        0.0212
      8 C          63.8148   90.7823   11.9743 C.ar    1  UNL1        0.0832
      9 C          64.6566   90.9402   13.2057 C.ar    1  UNL1        0.1581
     10 F          64.4430   90.0337   14.3815 F       1  UNL1       -0.2027
     11 C          65.7119   92.0047   13.2612 C.ar    1  UNL1        0.0827
     12 C          65.9255   92.9112   12.0854 C.ar    1  UNL1        0.0315
     13 N          66.5538   92.1626   14.4926 N.am    1  UNL1       -0.2566
     14 C          66.0444   92.3660   15.8888 C.3     1  UNL1        0.0988
     15 C          67.2286   92.4740   16.8031 C.3     1  UNL1        0.0315
     16 C          68.4699   92.3374   15.9721 C.3     1  UNL1        0.0874
     17 C          68.0528   92.1450   14.5441 C.2     1  UNL1        0.2294
     18 O          68.9732   91.9663   13.3733 O.2     1  UNL1       -0.2745
     19 N          65.2973   93.6598    9.6781 N.pl3   1  UNL1       -0.3326
     20 H          64.5342   93.9229    9.1144 H       1  UNL1        0.1468
     21 C          67.8155   93.2016    9.2329 C.3     1  UNL1        0.0229
     22 C          66.6734   94.1655    9.3611 C.3     1  UNL1        0.0871
     23 C          60.6715   87.6704    9.8137 C.3     1  UNL1        0.1443
     24 O          60.2038   86.4386    9.0967 O.3     1  UNL1       -0.3813
     25 H          60.7179   85.6737    9.3991 H       1  UNL1        0.2105
     26 C          60.0319   88.9957    9.5231 C.3     1  UNL1        0.1001
     27 N          60.2981   89.6869    8.2188 N.3     1  UNL1       -0.2917
     28 H          61.2598   89.4668    7.9598 H       1  UNL1        0.1236
     29 C          59.4468   89.3833    7.0216 C.3     1  UNL1        0.0957
     30 C          59.3512   90.3732    5.8988 C.ar    1  UNL1       -0.0064
     31 C          58.0229   90.9660    5.5326 C.ar    1  UNL1       -0.0029
     32 C          57.9272   91.9560    4.4097 C.ar    1  UNL1       -0.0003
     33 C          59.1600   92.3532    3.6530 C.ar    1  UNL1        0.0038
     34 C          60.4884   91.7604    4.0192 C.ar    1  UNL1        0.0712
     35 C          60.5839   90.7704    5.1421 C.ar    1  UNL1        0.0009
     36 C          61.7211   92.1575    3.2625 C.3     1  UNL1        0.4186
     37 F          62.9538   92.5547    2.5058 F       1  UNL1       -0.1659
     38 F          60.9563   93.2628    2.5967 F       1  UNL1       -0.1659
     39 F          62.4859   91.0522    3.9283 F       1  UNL1       -0.1659
     40 C          61.8307   86.4187   11.7732 C.3     1  UNL1        0.0484
     41 C          62.6639   85.2152   11.4455 C.ar    1  UNL1       -0.0204
     42 C          62.9609   84.8756   10.0149 C.ar    1  UNL1       -0.0042
     43 C          63.7940   83.6721    9.6872 C.ar    1  UNL1       -0.0003
     44 C          64.3301   82.8082   10.7899 C.ar    1  UNL1       -0.0000
     45 C          64.0331   83.1478   12.2205 C.ar    1  UNL1       -0.0003
     46 C          63.2000   84.3512   12.5483 C.ar    1  UNL1       -0.0042
@<TRIPOS>BOND
     1    21    22    1
     2    22    19    1
     3    19     6    1
     4     6     7   ar
     5     7     8   ar
     6     8     2    1
     7     2     3    2
     8     2     4   am
     9     4     1    1
    10     1    40    1
    11    40    41    1
    12    41    42   ar
    13    42    43   ar
    14    43    44   ar
    15    44    45   ar
    16    45    46   ar
    17     1    23    1
    18    23    24    1
    19    23    26    1
    20    26    27    1
    21    27    29    1
    22    29    30    1
    23    30    31   ar
    24    31    32   ar
    25    32    33   ar
    26    33    34   ar
    27    34    36    1
    28    36    37    1
    29    36    38    1
    30    36    39    1
    31    34    35   ar
    32     8     9   ar
    33     9    10    1
    34     9    11   ar
    35    11    13    1
    36    13    14    1
    37    14    15    1
    38    15    16    1
    39    16    17    1
    40    17    18    2
    41    11    12   ar
    42    12     6   ar
    43    46    41   ar
    44    35    30   ar
    45    17    13   am
    46    19    20    1
    47     4     5    1
    48    24    25    1
    49    27    28    1
