@<TRIPOS>MOLECULE
*****
 31 33 0 0 0
SMALL
GASTEIGER

@<TRIPOS>ATOM
      1 N          60.8270   86.4180   10.5864 N.am    1  UNL1       -0.2804
      2 C          62.0597   85.5761   10.4391 C.2     1  UNL1        0.2495
      3 O          62.8900   85.6733    9.1937 O.2     1  UNL1       -0.2698
      4 H          60.2820   86.3541   11.4038 H       1  UNL1        0.1552
      5 C          59.6198   89.2356    7.2919 C.ar    1  UNL1        0.0002
      6 C          60.3059   89.7639    8.5167 C.ar    1  UNL1        0.0013
      7 C          60.7083   88.8247    9.6149 C.ar    1  UNL1        0.0147
      8 C          60.4246   87.3572    9.4882 C.ar    1  UNL1        0.0505
      9 C          59.7386   86.8289    8.2633 C.ar    1  UNL1        0.0147
     10 C          59.3362   87.7682    7.1652 C.ar    1  UNL1        0.0013
     11 C          60.9098   92.3700    3.3534 C.3     1  UNL1        0.0521
     12 C          59.8625   91.7421    4.2245 C.ar    1  UNL1        0.0594
     13 C          60.2648   90.8028    5.3226 C.ar    1  UNL1        0.0147
     14 C          59.2175   90.1749    6.1937 C.ar    1  UNL1        0.0027
     15 C          57.7678   90.4862    5.9667 C.ar    1  UNL1        0.0207
     16 C          57.3655   91.4254    4.8685 C.ar    1  UNL1        0.0984
     17 N          58.4128   92.0533    3.9974 N.ar    1  UNL1       -0.2481
     18 C          62.4620   84.6369   11.5373 C.ar    1  UNL1        0.0536
     19 C          62.9217   85.1800   12.8578 C.ar    1  UNL1        0.0084
     20 C          63.3241   84.2407   13.9559 C.ar    1  UNL1        0.0715
     21 C          63.2668   82.7584   13.7336 C.ar    1  UNL1        0.0077
     22 C          62.8071   82.2153   12.4131 C.ar    1  UNL1        0.0715
     23 C          62.4047   83.1545   11.3149 C.ar    1  UNL1        0.0084
     24 C          63.7838   84.7838   15.2764 C.3     1  UNL1        0.4186
     25 F          64.2435   85.3269   16.5969 F       1  UNL1       -0.1659
     26 F          65.0318   85.3050   14.6276 F       1  UNL1       -0.1659
     27 F          62.5359   84.2626   15.9252 F       1  UNL1       -0.1659
     28 C          62.7498   80.7330   12.1907 C.3     1  UNL1        0.4186
     29 F          62.6925   79.2507   11.9684 F       1  UNL1       -0.1659
     30 F          62.4390   80.5271   13.6436 F       1  UNL1       -0.1659
     31 F          63.0606   80.9390   10.7378 F       1  UNL1       -0.1659
@<TRIPOS>BOND
     1    11    12    1
     2    12    13   ar
     3    13    14   ar
     4    14     5    1
     5     5     6   ar
     6     6     7   ar
     7     7     8   ar
     8     8     1    1
     9     1     2   am
    10     2     3    2
    11     2    18    1
    12    18    19   ar
    13    19    20   ar
    14    20    24    1
    15    24    25    1
    16    24    26    1
    17    24    27    1
    18    20    21   ar
    19    21    22   ar
    20    22    28    1
    21    28    29    1
    22    28    30    1
    23    28    31    1
    24    22    23   ar
    25     8     9   ar
    26     9    10   ar
    27    14    15   ar
    28    15    16   ar
    29    16    17   ar
    30    17    12   ar
    31    10     5   ar
    32    23    18   ar
    33     1     4    1
@<TRIPOS>MOLECULE
*****
 31 33 0 0 0
SMALL
GASTEIGER

@<TRIPOS>ATOM
      1 N          60.8281   86.4105   10.5841 N.am    1  UNL1       -0.2804
      2 C          62.0633   85.5715   10.4409 C.2     1  UNL1        0.2495
      3 O          62.8997   85.6738    9.2001 O.2     1  UNL1       -0.2698
      4 H          60.2791   86.3434   11.3986 H       1  UNL1        0.1552
      5 C          59.6322   89.2345    7.2910 C.ar    1  UNL1        0.0002
      6 C          59.3598   87.7657    7.1552 C.ar    1  UNL1        0.0013
      7 C          59.7585   86.8244    8.2529 C.ar    1  UNL1        0.0147
      8 C          60.4295   87.3519    9.4865 C.ar    1  UNL1        0.0505
      9 C          60.7018   88.8207    9.6223 C.ar    1  UNL1        0.0147
     10 C          60.3031   89.7620    8.5245 C.ar    1  UNL1        0.0013
     11 C          60.9334   92.3552    3.3453 C.3     1  UNL1        0.0521
     12 C          59.8841   91.7361    4.2204 C.ar    1  UNL1        0.0594
     13 C          60.2828   90.7949    5.3181 C.ar    1  UNL1        0.0147
     14 C          59.2335   90.1758    6.1932 C.ar    1  UNL1        0.0027
     15 C          57.7855   90.4981    5.9706 C.ar    1  UNL1        0.0207
     16 C          57.3869   91.4394    4.8729 C.ar    1  UNL1        0.0984
     17 N          58.4362   92.0584    3.9978 N.ar    1  UNL1       -0.2481
     18 C          62.4619   84.6302   11.5386 C.ar    1  UNL1        0.0536
     19 C          62.4018   83.1482   11.3145 C.ar    1  UNL1        0.0084
     20 C          62.8004   82.2069   12.4123 C.ar    1  UNL1        0.0715
     21 C          63.2592   82.7475   13.7341 C.ar    1  UNL1        0.0077
     22 C          63.3194   84.2295   13.9582 C.ar    1  UNL1        0.0715
     23 C          62.9207   85.1708   12.8605 C.ar    1  UNL1        0.0084
     24 C          62.7403   80.7250   12.1882 C.3     1  UNL1        0.4186
     25 F          62.6801   79.2430   11.9641 F       1  UNL1       -0.1659
     26 F          62.4214   80.5185   13.6393 F       1  UNL1       -0.1659
     27 F          63.0592   80.9315   10.7371 F       1  UNL1       -0.1659
     28 C          63.7782   84.7701   15.2800 C.3     1  UNL1        0.4186
     29 F          64.2371   85.3108   16.6018 F       1  UNL1       -0.1659
     30 F          65.0312   85.2838   14.6350 F       1  UNL1       -0.1659
     31 F          62.5252   84.2565   15.9250 F       1  UNL1       -0.1659
@<TRIPOS>BOND
     1    11    12    1
     2    12    13   ar
     3    13    14   ar
     4    14     5    1
     5     5     6   ar
     6     6     7   ar
     7     7     8   ar
     8     8     1    1
     9     1     2   am
    10     2     3    2
    11     2    18    1
    12    18    19   ar
    13    19    20   ar
    14    20    24    1
    15    24    25    1
    16    24    26    1
    17    24    27    1
    18    20    21   ar
    19    21    22   ar
    20    22    28    1
    21    28    29    1
    22    28    30    1
    23    28    31    1
    24    22    23   ar
    25     8     9   ar
    26     9    10   ar
    27    14    15   ar
    28    15    16   ar
    29    16    17   ar
    30    17    12   ar
    31    10     5   ar
    32    23    18   ar
    33     1     4    1
