@<TRIPOS>MOLECULE
*****
 25 28 0 0 0
SMALL
GASTEIGER

@<TRIPOS>ATOM
      1 C          63.5845   80.5417   13.7929 C.3     1  UNL1        0.0897
      2 N          63.4146   81.9732   13.3780 N.3     1  UNL1       -0.2709
      3 C          62.6669   82.1952   12.0967 C.3     1  UNL1        0.0768
      4 C          62.3349   83.4921   11.4203 C.3     1  UNL1        0.0433
      5 C          62.6685   84.8875   11.8581 C.ar    1  UNL1       -0.0246
      6 C          62.1474   85.9056   10.8876 C.ar    1  UNL1       -0.0030
      7 C          62.3743   87.3669   11.1395 C.ar    1  UNL1        0.0187
      8 C          61.9816   88.5914   10.3673 C.ar    1  UNL1        0.0220
      9 C          62.4869   89.7911   11.1124 C.ar    1  UNL1        0.0999
     10 N          63.1919   89.3082   12.3451 N.ar    1  UNL1       -0.2077
     11 C          63.1223   87.8099   12.3619 C.ar    1  UNL1        0.0822
     12 C          63.6434   86.7917   13.3324 C.ar    1  UNL1        0.0144
     13 C          63.4165   85.3305   13.0804 C.ar    1  UNL1       -0.0232
     14 C          64.0157   84.4875   14.1669 C.3     1  UNL1        0.0434
     15 C          64.0149   82.9935   14.2994 C.3     1  UNL1        0.0768
     16 S          63.8508   90.1719   13.3794 S.O2    1  UNL1        0.0860
     17 O          63.1562   89.4029   14.4640 O.2     1  UNL1       -0.1476
     18 O          64.5454   90.9408   12.2949 O.2     1  UNL1       -0.1476
     19 C          64.5097   91.0355   14.4138 C.ar    1  UNL1        0.1285
     20 C          63.9192   91.1422   15.7886 C.ar    1  UNL1        0.0204
     21 C          64.5781   92.0057   16.8229 C.ar    1  UNL1        0.0023
     22 C          65.8275   92.7628   16.4826 C.ar    1  UNL1        0.0115
     23 C          66.4181   92.6562   15.1078 C.ar    1  UNL1        0.0590
     24 CL         67.6675   93.4132   14.7675 Cl      1  UNL1       -0.0822
     25 C          65.7591   91.7925   14.0734 C.ar    1  UNL1        0.0318
@<TRIPOS>BOND
     1     1     2    1
     2     2     3    1
     3     3     4    1
     4     4     5    1
     5     5     6   ar
     6     6     7   ar
     7     7     8   ar
     8     8     9   ar
     9     9    10   ar
    10    10    16    1
    11    16    17    2
    12    16    18    2
    13    16    19    1
    14    19    20   ar
    15    20    21   ar
    16    21    22   ar
    17    22    23   ar
    18    23    24    1
    19    23    25   ar
    20    10    11   ar
    21    11    12   ar
    22    12    13   ar
    23    13    14    1
    24    14    15    1
    25    15     2    1
    26    13     5   ar
    27    11     7   ar
    28    25    19   ar
@<TRIPOS>MOLECULE
*****
 25 28 0 0 0
SMALL
GASTEIGER

@<TRIPOS>ATOM
      1 C          62.8724   80.2604   11.0350 C.3     1  UNL1        0.0897
      2 N          62.9085   81.4223   11.9830 N.3     1  UNL1       -0.2709
      3 C          62.4685   81.1306   13.3871 C.3     1  UNL1        0.0768
      4 C          62.3912   82.0667   14.5565 C.3     1  UNL1        0.0433
      5 C          62.7348   83.5258   14.6108 C.ar    1  UNL1       -0.0246
      6 C          62.5133   84.0903   15.9827 C.ar    1  UNL1       -0.0030
      7 C          62.7975   85.5382   16.2529 C.ar    1  UNL1        0.0187
      8 C          62.6756   86.3703   17.4950 C.ar    1  UNL1        0.0220
      9 C          63.1060   87.7677   17.1608 C.ar    1  UNL1        0.0999
     10 N          63.4939   87.7995   15.7123 N.ar    1  UNL1       -0.2077
     11 C          63.3032   86.4215   15.1511 C.ar    1  UNL1        0.0822
     12 C          63.5248   85.8569   13.7791 C.ar    1  UNL1        0.0144
     13 C          63.2406   84.4091   13.5090 C.ar    1  UNL1       -0.0232
     14 C          63.5277   84.0514   12.0808 C.3     1  UNL1        0.0434
     15 C          63.3799   82.7223   11.4017 C.3     1  UNL1        0.0768
     16 S          63.9861   88.9986   14.9573 S.O2    1  UNL1        0.0860
     17 O          65.2483   88.2644   14.6141 O.2     1  UNL1       -0.1476
     18 O          62.7239   89.7328   15.3006 O.2     1  UNL1       -0.1476
     19 C          64.4783   90.1977   14.2024 C.ar    1  UNL1        0.1285
     20 C          63.9573   90.4825   12.8250 C.ar    1  UNL1        0.0204
     21 C          64.4494   91.6815   12.0701 C.ar    1  UNL1        0.0023
     22 C          65.4626   92.5959   12.6925 C.ar    1  UNL1        0.0115
     23 C          65.9837   92.3110   14.0700 C.ar    1  UNL1        0.0590
     24 CL         66.9969   93.2253   14.6925 Cl      1  UNL1       -0.0822
     25 C          65.4915   91.1119   14.8249 C.ar    1  UNL1        0.0318
@<TRIPOS>BOND
     1     1     2    1
     2     2     3    1
     3     3     4    1
     4     4     5    1
     5     5     6   ar
     6     6     7   ar
     7     7     8   ar
     8     8     9   ar
     9     9    10   ar
    10    10    16    1
    11    16    17    2
    12    16    18    2
    13    16    19    1
    14    19    20   ar
    15    20    21   ar
    16    21    22   ar
    17    22    23   ar
    18    23    24    1
    19    23    25   ar
    20    10    11   ar
    21    11    12   ar
    22    12    13   ar
    23    13    14    1
    24    14    15    1
    25    15     2    1
    26    13     5   ar
    27    11     7   ar
    28    25    19   ar
@<TRIPOS>MOLECULE
*****
 25 28 0 0 0
SMALL
GASTEIGER

@<TRIPOS>ATOM
      1 C          58.9858   89.6877    6.4803 C.3     1  UNL1        0.0897
      2 N          59.7568   89.0975    7.6236 N.3     1  UNL1       -0.2709
      3 C          60.4762   90.0799    8.4997 C.3     1  UNL1        0.0768
      4 C          61.3227   89.8102    9.7081 C.3     1  UNL1        0.0433
      5 C          61.6591   88.4917   10.3392 C.ar    1  UNL1       -0.0246
      6 C          62.5403   88.6678   11.5402 C.ar    1  UNL1       -0.0030
      7 C          62.9944   87.4692   12.3195 C.ar    1  UNL1        0.0187
      8 C          63.8596   87.3326   13.5372 C.ar    1  UNL1        0.0220
      9 C          63.9671   85.8736   13.8681 C.ar    1  UNL1        0.0999
     10 N          63.1684   85.1084   12.8550 N.ar    1  UNL1       -0.2077
     11 C          62.5672   86.0946   11.8979 C.ar    1  UNL1        0.0822
     12 C          61.6860   85.9185   10.6968 C.ar    1  UNL1        0.0144
     13 C          61.2320   87.1170    9.9175 C.ar    1  UNL1       -0.0232
     14 C          60.3629   86.7215    8.7606 C.3     1  UNL1        0.0434
     15 C          59.7064   87.6027    7.7398 C.3     1  UNL1        0.0768
     16 S          63.0004   83.6186   12.8072 S.O2    1  UNL1        0.0860
     17 O          62.1503   83.6749   14.0418 O.2     1  UNL1       -0.1476
     18 O          63.8504   83.5623   11.5726 O.2     1  UNL1       -0.1476
     19 C          62.8323   82.1288   12.7594 C.ar    1  UNL1        0.1285
     20 C          62.5411   81.3662   14.0178 C.ar    1  UNL1        0.0204
     21 C          62.3730   79.8765   13.9701 C.ar    1  UNL1        0.0023
     22 C          62.4962   79.1492   12.6640 C.ar    1  UNL1        0.0115
     23 C          62.7874   79.9118   11.4055 C.ar    1  UNL1        0.0590
     24 CL         62.9106   79.1847   10.0994 Cl      1  UNL1       -0.0822
     25 C          62.9555   81.4016   11.4533 C.ar    1  UNL1        0.0318
@<TRIPOS>BOND
     1     1     2    1
     2     2     3    1
     3     3     4    1
     4     4     5    1
     5     5     6   ar
     6     6     7   ar
     7     7     8   ar
     8     8     9   ar
     9     9    10   ar
    10    10    16    1
    11    16    17    2
    12    16    18    2
    13    16    19    1
    14    19    20   ar
    15    20    21   ar
    16    21    22   ar
    17    22    23   ar
    18    23    24    1
    19    23    25   ar
    20    10    11   ar
    21    11    12   ar
    22    12    13   ar
    23    13    14    1
    24    14    15    1
    25    15     2    1
    26    13     5   ar
    27    11     7   ar
    28    25    19   ar
@<TRIPOS>MOLECULE
*****
 25 28 0 0 0
SMALL
GASTEIGER

@<TRIPOS>ATOM
      1 C          66.6934   96.3959   11.0814 C.3     1  UNL1        0.0897
      2 N          66.1793   95.0450   11.4823 N.3     1  UNL1       -0.2709
      3 C          66.5344   94.5989   12.8698 C.3     1  UNL1        0.0768
      4 C          66.1760   93.3165   13.5603 C.3     1  UNL1        0.0433
      5 C          65.3740   92.1633   13.0340 C.ar    1  UNL1       -0.0246
      6 C          65.2497   91.0712   14.0546 C.ar    1  UNL1       -0.0030
      7 C          64.4836   89.8234   13.7284 C.ar    1  UNL1        0.0187
      8 C          64.1930   88.5867   14.5259 C.ar    1  UNL1        0.0220
      9 C          63.3717   87.6669   13.6719 C.ar    1  UNL1        0.0999
     10 N          63.1546   88.3351   12.3467 N.ar    1  UNL1       -0.2077
     11 C          63.8419   89.6679   12.3816 C.ar    1  UNL1        0.0822
     12 C          63.9662   90.7602   11.3609 C.ar    1  UNL1        0.0144
     13 C          64.7323   92.0078   11.6872 C.ar    1  UNL1       -0.0232
     14 C          64.7341   92.9671   10.5340 C.3     1  UNL1        0.0434
     15 C          65.3780   94.3187   10.4428 C.3     1  UNL1        0.0768
     16 S          62.3855   87.7697   11.1896 S.O2    1  UNL1        0.0860
     17 O          62.7583   86.3820   11.6198 O.2     1  UNL1       -0.1476
     18 O          62.0126   89.1575   10.7594 O.2     1  UNL1       -0.1476
     19 C          61.6163   87.2044   10.0326 C.ar    1  UNL1        0.1285
     20 C          60.1653   87.5429    9.8594 C.ar    1  UNL1        0.0204
     21 C          59.3962   86.9777    8.7025 C.ar    1  UNL1        0.0023
     22 C          60.0779   86.0738    7.7184 C.ar    1  UNL1        0.0115
     23 C          61.5290   85.7352    7.8916 C.ar    1  UNL1        0.0590
     24 CL         62.2108   84.8314    6.9076 Cl      1  UNL1       -0.0822
     25 C          62.2981   86.3006    9.0486 C.ar    1  UNL1        0.0318
@<TRIPOS>BOND
     1     1     2    1
     2     2     3    1
     3     3     4    1
     4     4     5    1
     5     5     6   ar
     6     6     7   ar
     7     7     8   ar
     8     8     9   ar
     9     9    10   ar
    10    10    16    1
    11    16    17    2
    12    16    18    2
    13    16    19    1
    14    19    20   ar
    15    20    21   ar
    16    21    22   ar
    17    22    23   ar
    18    23    24    1
    19    23    25   ar
    20    10    11   ar
    21    11    12   ar
    22    12    13   ar
    23    13    14    1
    24    14    15    1
    25    15     2    1
    26    13     5   ar
    27    11     7   ar
    28    25    19   ar
@<TRIPOS>MOLECULE
*****
 25 28 0 0 0
SMALL
GASTEIGER

@<TRIPOS>ATOM
      1 C          66.1553   93.8824   13.7057 C.3     1  UNL1        0.0897
      2 N          65.5742   92.6063   14.2386 N.3     1  UNL1       -0.2709
      3 C          64.9996   92.6807   15.6223 C.3     1  UNL1        0.0768
      4 C          64.3535   91.5918   16.4263 C.3     1  UNL1        0.0433
      5 C          64.1223   90.1594   16.0455 C.ar    1  UNL1       -0.0246
      6 C          63.4401   89.4029   17.1466 C.ar    1  UNL1       -0.0030
      7 C          63.1157   87.9492   16.9686 C.ar    1  UNL1        0.0187
      8 C          62.4525   86.9510   17.8706 C.ar    1  UNL1        0.0220
      9 C          62.4004   85.6371   17.1490 C.ar    1  UNL1        0.0999
     10 N          63.0315   85.8231   15.8011 N.ar    1  UNL1       -0.2077
     11 C          63.4736   87.2521   15.6895 C.ar    1  UNL1        0.0822
     12 C          64.1558   88.0087   14.5884 C.ar    1  UNL1        0.0144
     13 C          64.4801   89.4623   14.7665 C.ar    1  UNL1       -0.0232
     14 C          65.1576   90.0254   13.5524 C.3     1  UNL1        0.0434
     15 C          65.6445   91.4245   13.3174 C.3     1  UNL1        0.0768
     16 S          63.1922   84.7658   14.7493 S.O2    1  UNL1        0.0860
     17 O          61.7022   84.6968   14.5909 O.2     1  UNL1       -0.1476
     18 O          64.6823   84.8348   14.9077 O.2     1  UNL1       -0.1476
     19 C          63.3530   83.7085   13.6975 C.ar    1  UNL1        0.1285
     20 C          64.0948   84.0173   12.4309 C.ar    1  UNL1        0.0204
     21 C          64.2556   82.9601   11.3791 C.ar    1  UNL1        0.0023
     22 C          63.6746   81.5939   11.5938 C.ar    1  UNL1        0.0115
     23 C          62.9328   81.2851   12.8605 C.ar    1  UNL1        0.0590
     24 CL         62.3517   79.9190   13.0753 Cl      1  UNL1       -0.0822
     25 C          62.7720   82.3424   13.9123 C.ar    1  UNL1        0.0318
@<TRIPOS>BOND
     1     1     2    1
     2     2     3    1
     3     3     4    1
     4     4     5    1
     5     5     6   ar
     6     6     7   ar
     7     7     8   ar
     8     8     9   ar
     9     9    10   ar
    10    10    16    1
    11    16    17    2
    12    16    18    2
    13    16    19    1
    14    19    20   ar
    15    20    21   ar
    16    21    22   ar
    17    22    23   ar
    18    23    24    1
    19    23    25   ar
    20    10    11   ar
    21    11    12   ar
    22    12    13   ar
    23    13    14    1
    24    14    15    1
    25    15     2    1
    26    13     5   ar
    27    11     7   ar
    28    25    19   ar
@<TRIPOS>MOLECULE
*****
 25 28 0 0 0
SMALL
GASTEIGER

@<TRIPOS>ATOM
      1 C          62.7822   82.9417   14.8320 C.3     1  UNL1        0.0897
      2 N          63.0454   84.4075   15.0113 N.3     1  UNL1       -0.2709
      3 C          62.6247   84.9880   16.3290 C.3     1  UNL1        0.0768
      4 C          62.7491   86.4032   16.8099 C.3     1  UNL1        0.0433
      5 C          63.3250   87.5877   16.0921 C.ar    1  UNL1       -0.0246
      6 C          63.2561   88.8263   16.9354 C.ar    1  UNL1       -0.0030
      7 C          63.7809   90.1266   16.4026 C.ar    1  UNL1        0.0187
      8 C          63.8477   91.5016   16.9983 C.ar    1  UNL1        0.0220
      9 C          64.4827   92.4131   15.9904 C.ar    1  UNL1        0.0999
     10 N          64.8083   91.6015   14.7717 N.ar    1  UNL1       -0.2077
     11 C          64.3746   90.1883   15.0265 C.ar    1  UNL1        0.0822
     12 C          64.4435   88.9497   14.1831 C.ar    1  UNL1        0.0144
     13 C          63.9187   87.6495   14.7160 C.ar    1  UNL1       -0.0232
     14 C          64.0831   86.5419   13.7178 C.3     1  UNL1        0.0434
     15 C          63.6945   85.0992   13.8492 C.3     1  UNL1        0.0768
     16 S          65.4543   92.1131   13.5184 S.O2    1  UNL1        0.0860
     17 O          66.7655   92.2223   14.2387 O.2     1  UNL1       -0.1476
     18 O          64.1431   92.0039   12.7980 O.2     1  UNL1       -0.1476
     19 C          66.1003   92.6247   12.2650 C.ar    1  UNL1        0.1285
     20 C          66.9213   91.7020   11.4139 C.ar    1  UNL1        0.0204
     21 C          67.5672   92.2135   10.1606 C.ar    1  UNL1        0.0023
     22 C          67.3922   93.6479    9.7581 C.ar    1  UNL1        0.0115
     23 C          66.5712   94.5708   10.6093 C.ar    1  UNL1        0.0590
     24 CL         66.3961   96.0052   10.2070 Cl      1  UNL1       -0.0822
     25 C          65.9252   94.0591   11.8627 C.ar    1  UNL1        0.0318
@<TRIPOS>BOND
     1     1     2    1
     2     2     3    1
     3     3     4    1
     4     4     5    1
     5     5     6   ar
     6     6     7   ar
     7     7     8   ar
     8     8     9   ar
     9     9    10   ar
    10    10    16    1
    11    16    17    2
    12    16    18    2
    13    16    19    1
    14    19    20   ar
    15    20    21   ar
    16    21    22   ar
    17    22    23   ar
    18    23    24    1
    19    23    25   ar
    20    10    11   ar
    21    11    12   ar
    22    12    13   ar
    23    13    14    1
    24    14    15    1
    25    15     2    1
    26    13     5   ar
    27    11     7   ar
    28    25    19   ar
@<TRIPOS>MOLECULE
*****
 25 28 0 0 0
SMALL
GASTEIGER

@<TRIPOS>ATOM
      1 C          63.9228   81.2144   14.3930 C.3     1  UNL1        0.0897
      2 N          63.6055   82.5670   13.8274 N.3     1  UNL1       -0.2709
      3 C          62.5055   82.6045   12.8082 C.3     1  UNL1        0.0768
      4 C          61.9586   83.7875   12.0657 C.3     1  UNL1        0.0433
      5 C          62.3764   85.2251   12.1589 C.ar    1  UNL1       -0.0246
      6 C          61.5676   86.0916   11.2397 C.ar    1  UNL1       -0.0030
      7 C          61.8268   87.5678   11.1792 C.ar    1  UNL1        0.0187
      8 C          61.1950   88.6658   10.3759 C.ar    1  UNL1        0.0220
      9 C          61.8725   89.9540   10.7383 C.ar    1  UNL1        0.0999
     10 N          62.9230   89.6523   11.7655 N.ar    1  UNL1       -0.2077
     11 C          62.8948   88.1775   12.0381 C.ar    1  UNL1        0.0822
     12 C          63.7036   87.3110   12.9573 C.ar    1  UNL1        0.0144
     13 C          63.4444   85.8348   13.0177 C.ar    1  UNL1       -0.0232
     14 C          64.3584   85.1574   13.9954 C.3     1  UNL1        0.0434
     15 C          64.4301   83.7032   14.3558 C.3     1  UNL1        0.0768
     16 S          63.8408   90.6501   12.4075 S.O2    1  UNL1        0.0860
     17 O          64.2860   91.1128   11.0519 O.2     1  UNL1       -0.1476
     18 O          63.3955   90.1874   13.7631 O.2     1  UNL1       -0.1476
     19 C          64.7585   91.6479   13.0495 C.ar    1  UNL1        0.1285
     20 C          65.1519   91.4879   14.4881 C.ar    1  UNL1        0.0204
     21 C          66.0695   92.4857   15.1301 C.ar    1  UNL1        0.0023
     22 C          66.5940   93.6435   14.3336 C.ar    1  UNL1        0.0115
     23 C          66.2006   93.8034   12.8949 C.ar    1  UNL1        0.0590
     24 CL         66.7250   94.9612   12.0983 Cl      1  UNL1       -0.0822
     25 C          65.2829   92.8056   12.2529 C.ar    1  UNL1        0.0318
@<TRIPOS>BOND
     1     1     2    1
     2     2     3    1
     3     3     4    1
     4     4     5    1
     5     5     6   ar
     6     6     7   ar
     7     7     8   ar
     8     8     9   ar
     9     9    10   ar
    10    10    16    1
    11    16    17    2
    12    16    18    2
    13    16    19    1
    14    19    20   ar
    15    20    21   ar
    16    21    22   ar
    17    22    23   ar
    18    23    24    1
    19    23    25   ar
    20    10    11   ar
    21    11    12   ar
    22    12    13   ar
    23    13    14    1
    24    14    15    1
    25    15     2    1
    26    13     5   ar
    27    11     7   ar
    28    25    19   ar
@<TRIPOS>MOLECULE
*****
 25 28 0 0 0
SMALL
GASTEIGER

@<TRIPOS>ATOM
      1 C          63.5873   81.8111   14.5577 C.3     1  UNL1        0.0897
      2 N          63.3827   83.1494   13.9118 N.3     1  UNL1       -0.2709
      3 C          62.3820   83.1869   12.7949 C.3     1  UNL1        0.0768
      4 C          61.9573   84.3574   11.9588 C.3     1  UNL1        0.0433
      5 C          62.4284   85.7797   12.0327 C.ar    1  UNL1       -0.0246
      6 C          61.7451   86.6372   11.0091 C.ar    1  UNL1       -0.0030
      7 C          62.0739   88.0977   10.9141 C.ar    1  UNL1        0.0187
      8 C          61.5666   89.1842   10.0129 C.ar    1  UNL1        0.0220
      9 C          62.2651   90.4584   10.3845 C.ar    1  UNL1        0.0999
     10 N          63.2042   90.1596   11.5153 N.ar    1  UNL1       -0.2077
     11 C          63.0860   88.7005   11.8426 C.ar    1  UNL1        0.0822
     12 C          63.7693   87.8429   12.8662 C.ar    1  UNL1        0.0144
     13 C          63.4404   86.3825   12.9613 C.ar    1  UNL1       -0.0232
     14 C          64.2314   85.7120   14.0452 C.3     1  UNL1        0.0434
     15 C          64.2058   84.2733   14.4682 C.3     1  UNL1        0.0768
     16 S          64.1035   91.1465   12.1988 S.O2    1  UNL1        0.0860
     17 O          64.8814   91.3179   10.9278 O.2     1  UNL1       -0.1476
     18 O          63.3256   90.9751   13.4698 O.2     1  UNL1       -0.1476
     19 C          65.0028   92.1334   12.8824 C.ar    1  UNL1        0.1285
     20 C          65.4670   93.3575   12.1502 C.ar    1  UNL1        0.0204
     21 C          66.3663   94.3443   12.8337 C.ar    1  UNL1        0.0023
     22 C          66.8015   94.1073   14.2494 C.ar    1  UNL1        0.0115
     23 C          66.3373   92.8831   14.9817 C.ar    1  UNL1        0.0590
     24 CL         66.7725   92.6460   16.3975 Cl      1  UNL1       -0.0822
     25 C          65.4380   91.8962   14.2981 C.ar    1  UNL1        0.0318
@<TRIPOS>BOND
     1     1     2    1
     2     2     3    1
     3     3     4    1
     4     4     5    1
     5     5     6   ar
     6     6     7   ar
     7     7     8   ar
     8     8     9   ar
     9     9    10   ar
    10    10    16    1
    11    16    17    2
    12    16    18    2
    13    16    19    1
    14    19    20   ar
    15    20    21   ar
    16    21    22   ar
    17    22    23   ar
    18    23    24    1
    19    23    25   ar
    20    10    11   ar
    21    11    12   ar
    22    12    13   ar
    23    13    14    1
    24    14    15    1
    25    15     2    1
    26    13     5   ar
    27    11     7   ar
    28    25    19   ar
@<TRIPOS>MOLECULE
*****
 25 28 0 0 0
SMALL
GASTEIGER

@<TRIPOS>ATOM
      1 C          58.6916   88.9528    6.3522 C.3     1  UNL1        0.0897
      2 N          59.5239   88.5432    7.5310 N.3     1  UNL1       -0.2709
      3 C          59.7046   87.0658    7.7182 C.3     1  UNL1        0.0768
      4 C          60.4715   86.3456    8.7872 C.3     1  UNL1        0.0433
      5 C          61.2472   86.9245    9.9332 C.ar    1  UNL1       -0.0246
      6 C          61.8678   85.8485   10.7740 C.ar    1  UNL1       -0.0030
      7 C          62.6889   86.2149   11.9748 C.ar    1  UNL1        0.0187
      8 C          63.4186   85.3796   12.9846 C.ar    1  UNL1        0.0220
      9 C          64.0699   86.3057   13.9685 C.ar    1  UNL1        0.0999
     10 N          63.7427   87.7133   13.5668 N.ar    1  UNL1       -0.2077
     11 C          62.8892   87.6573   12.3346 C.ar    1  UNL1        0.0822
     12 C          62.2685   88.7332   11.4937 C.ar    1  UNL1        0.0144
     13 C          61.4475   88.3669   10.2930 C.ar    1  UNL1       -0.0232
     14 C          60.9216   89.5864    9.5958 C.3     1  UNL1        0.0434
     15 C          60.0656   89.6649    8.3666 C.3     1  UNL1        0.0768
     16 S          64.1905   88.9585   14.2733 S.O2    1  UNL1        0.0860
     17 O          64.5050   89.5950   12.9520 O.2     1  UNL1       -0.1476
     18 O          63.8760   88.3219   15.5946 O.2     1  UNL1       -0.1476
     19 C          64.6382   90.2037   14.9797 C.ar    1  UNL1        0.1285
     20 C          63.8412   90.7403   16.1316 C.ar    1  UNL1        0.0204
     21 C          64.2889   91.9854   16.8380 C.ar    1  UNL1        0.0023
     22 C          65.5337   92.6941   16.3927 C.ar    1  UNL1        0.0115
     23 C          66.3308   92.1574   15.2408 C.ar    1  UNL1        0.0590
     24 CL         67.5756   92.8660   14.7955 Cl      1  UNL1       -0.0822
     25 C          65.8830   90.9122   14.5344 C.ar    1  UNL1        0.0318
@<TRIPOS>BOND
     1     1     2    1
     2     2     3    1
     3     3     4    1
     4     4     5    1
     5     5     6   ar
     6     6     7   ar
     7     7     8   ar
     8     8     9   ar
     9     9    10   ar
    10    10    16    1
    11    16    17    2
    12    16    18    2
    13    16    19    1
    14    19    20   ar
    15    20    21   ar
    16    21    22   ar
    17    22    23   ar
    18    23    24    1
    19    23    25   ar
    20    10    11   ar
    21    11    12   ar
    22    12    13   ar
    23    13    14    1
    24    14    15    1
    25    15     2    1
    26    13     5   ar
    27    11     7   ar
    28    25    19   ar
