@<TRIPOS>MOLECULE
*****
 45 49 0 0 0
SMALL
GASTEIGER

@<TRIPOS>ATOM
      1 C          62.0977   90.2007   11.2708 C.ar    1  UNL1        0.0574
      2 C          62.2966   89.7432   12.6854 C.ar    1  UNL1        0.0786
      3 N          63.4387   90.2827   13.4945 N.ar    1  UNL1       -0.2979
      4 C          64.3818   91.2796   12.8890 C.ar    1  UNL1        0.1750
      5 N          64.1829   91.7371   11.4744 N.ar    1  UNL1       -0.1847
      6 C          63.0408   91.1976   10.6653 C.ar    1  UNL1        0.2786
      7 O          62.8418   91.6551    9.2507 O.2     1  UNL1       -0.2654
      8 C          60.9555   89.6613   10.4617 C.3     1  UNL1        0.0622
      9 C          62.9777   85.1662    8.5683 C.3     1  UNL1        0.1537
     10 N          62.0303   86.2904    8.8658 N.ar    1  UNL1       -0.2477
     11 C          62.3284   87.4953    9.7081 C.ar    1  UNL1        0.0927
     12 C          61.1007   88.3566    9.7361 C.ar    1  UNL1        0.0220
     13 C          60.0438   87.6841    8.9111 C.ar    1  UNL1        0.1177
     14 N          60.6182   86.4072    8.3732 N.ar    1  UNL1       -0.1679
     15 C          63.6377   89.8252   14.9091 C.3     1  UNL1        0.1934
     16 C          64.2470   88.4824   15.1844 C.2     1  UNL1        0.2491
     17 O          65.5047   88.0706   14.4783 O.2     1  UNL1       -0.2727
     18 N          63.5986   87.5516   16.1658 N.am    1  UNL1       -0.2713
     19 C          62.3409   87.9634   16.8719 C.3     1  UNL1        0.1254
     20 C          61.4852   86.9306   17.5435 C.3     1  UNL1        0.1586
     21 O          60.4880   86.1469   16.7426 O.3     1  UNL1       -0.3802
     22 H          59.7963   86.7429   16.4152 H       1  UNL1        0.2105
     23 C          64.2080   86.2088   16.4411 C.3     1  UNL1        0.1203
     24 C          63.9716   85.0696   15.4943 C.ar    1  UNL1       -0.0023
     25 C          62.7703   84.1880   15.6667 C.ar    1  UNL1       -0.0026
     26 C          62.5340   83.0488   14.7200 C.ar    1  UNL1       -0.0003
     27 C          63.4988   82.7913   13.6008 C.ar    1  UNL1       -0.0000
     28 C          64.7001   83.6729   13.4284 C.ar    1  UNL1       -0.0003
     29 C          64.9365   84.8120   14.3751 C.ar    1  UNL1       -0.0026
     30 C          63.2625   81.6520   12.6540 C.ar    1  UNL1        0.0001
     31 C          62.8000   80.3249   13.1781 C.ar    1  UNL1        0.0009
     32 C          62.5637   79.1857   12.2314 C.ar    1  UNL1        0.0114
     33 C          62.7898   79.3737   10.7606 C.ar    1  UNL1        0.0577
     34 CL         62.5534   78.2344    9.8137 Cl      1  UNL1       -0.0822
     35 C          63.2522   80.7009   10.2364 C.ar    1  UNL1        0.0114
     36 C          63.4886   81.8400   11.1831 C.ar    1  UNL1        0.0009
     37 S          65.5240   91.8190   13.6981 S.3     1  UNL1       -0.0724
     38 C          66.8830   91.9564   13.0785 C.3     1  UNL1        0.0913
     39 C          67.0567   92.7554   11.8208 C.ar    1  UNL1       -0.0108
     40 C          66.5048   94.1475   11.7345 C.ar    1  UNL1       -0.0011
     41 C          66.6784   94.9463   10.4769 C.ar    1  UNL1        0.0293
     42 C          67.4039   94.3531    9.3056 C.ar    1  UNL1        0.1401
     43 F          67.5775   95.1520    8.0480 F       1  UNL1       -0.2042
     44 C          67.9557   92.9610    9.3920 C.ar    1  UNL1        0.0293
     45 C          67.7821   92.1621   10.6496 C.ar    1  UNL1       -0.0011
@<TRIPOS>BOND
     1     9    10    1
     2    10    11   ar
     3    11    12   ar
     4    12     8    1
     5     8     1    1
     6     1     2   ar
     7     2     3   ar
     8     3    15    1
     9    15    16    1
    10    16    17    2
    11    16    18   am
    12    18    19    1
    13    19    20    1
    14    20    21    1
    15    18    23    1
    16    23    24    1
    17    24    25   ar
    18    25    26   ar
    19    26    27   ar
    20    27    30    1
    21    30    31   ar
    22    31    32   ar
    23    32    33   ar
    24    33    34    1
    25    33    35   ar
    26    35    36   ar
    27    27    28   ar
    28    28    29   ar
    29     3     4   ar
    30     4    37    1
    31    37    38    1
    32    38    39    1
    33    39    40   ar
    34    40    41   ar
    35    41    42   ar
    36    42    43    1
    37    42    44   ar
    38    44    45   ar
    39     4     5   ar
    40     5     6   ar
    41     6     7    2
    42    12    13   ar
    43    13    14   ar
    44    14    10   ar
    45     6     1   ar
    46    29    24   ar
    47    45    39   ar
    48    36    30   ar
    49    21    22    1
@<TRIPOS>MOLECULE
*****
 45 49 0 0 0
SMALL
GASTEIGER

@<TRIPOS>ATOM
      1 C          61.2249   89.1673   10.8541 C.ar    1  UNL1        0.0574
      2 C          61.9042   88.9973   12.1806 C.ar    1  UNL1        0.0786
      3 N          62.9896   89.9463   12.5944 N.ar    1  UNL1       -0.2979
      4 C          63.3956   91.0653   11.6818 C.ar    1  UNL1        0.1750
      5 N          62.7163   91.2353   10.3553 N.ar    1  UNL1       -0.1847
      6 C          61.6310   90.2863    9.9415 C.ar    1  UNL1        0.2786
      7 O          60.9516   90.4563    8.6149 O.2     1  UNL1       -0.2654
      8 C          60.1395   88.2182   10.4402 C.3     1  UNL1        0.0622
      9 C          62.4516   84.8232    7.1223 C.3     1  UNL1        0.1537
     10 N          61.4316   85.7054    7.7792 N.ar    1  UNL1       -0.2477
     11 C          61.6521   86.5524    8.9973 C.ar    1  UNL1        0.0927
     12 C          60.3689   87.2659    9.3043 C.ar    1  UNL1        0.0220
     13 C          59.3553   86.8598    8.2758 C.ar    1  UNL1        0.1177
     14 N          60.0121   85.8953    7.3332 N.ar    1  UNL1       -0.1679
     15 C          63.6690   89.7763   13.9209 C.3     1  UNL1        0.1934
     16 C          63.8187   88.4080   14.5170 C.2     1  UNL1        0.2491
     17 O          64.2288   87.2536   13.6514 O.2     1  UNL1       -0.2727
     18 N          63.5583   88.1940   15.9786 N.am    1  UNL1       -0.2713
     19 C          63.1482   89.3484   16.8443 C.3     1  UNL1        0.1254
     20 C          63.8975   90.6457   16.7690 C.3     1  UNL1        0.1586
     21 O          63.1503   91.9341   16.5912 O.3     1  UNL1       -0.3802
     22 H          62.7231   91.9426   15.7204 H       1  UNL1        0.2105
     23 C          63.7080   86.8257   16.5747 C.3     1  UNL1        0.1203
     24 C          63.5533   85.6099   15.7099 C.ar    1  UNL1       -0.0023
     25 C          64.7358   85.0626   14.9669 C.ar    1  UNL1       -0.0026
     26 C          64.5811   83.8468   14.1021 C.ar    1  UNL1       -0.0003
     27 C          63.2439   83.1783   13.9803 C.ar    1  UNL1       -0.0000
     28 C          62.0613   83.7256   14.7233 C.ar    1  UNL1       -0.0003
     29 C          62.2160   84.9414   15.5881 C.ar    1  UNL1       -0.0026
     30 C          63.0891   81.9625   13.1155 C.ar    1  UNL1        0.0001
     31 C          62.7086   80.6483   13.7303 C.ar    1  UNL1        0.0009
     32 C          62.5539   79.4325   12.8656 C.ar    1  UNL1        0.0114
     33 C          62.7796   79.5309   11.3860 C.ar    1  UNL1        0.0577
     34 CL         62.6248   78.3150   10.5212 Cl      1  UNL1       -0.0822
     35 C          63.1601   80.8451   10.7711 C.ar    1  UNL1        0.0114
     36 C          63.3149   82.0609   11.6358 C.ar    1  UNL1        0.0009
     37 S          64.4811   92.0144   12.0957 S.3     1  UNL1       -0.0724
     38 C          65.8297   91.9420   11.4431 C.3     1  UNL1        0.0913
     39 C          66.3312   93.0969   10.6277 C.ar    1  UNL1       -0.0108
     40 C          65.7112   94.4533   10.7876 C.ar    1  UNL1       -0.0011
     41 C          66.2127   95.6081    9.9722 C.ar    1  UNL1        0.0293
     42 C          67.3344   95.4064    8.9969 C.ar    1  UNL1        0.1401
     43 F          67.8359   96.5613    8.1815 F       1  UNL1       -0.2042
     44 C          67.9545   94.0500    8.8370 C.ar    1  UNL1        0.0293
     45 C          67.4529   92.8953    9.6523 C.ar    1  UNL1       -0.0011
@<TRIPOS>BOND
     1     9    10    1
     2    10    11   ar
     3    11    12   ar
     4    12     8    1
     5     8     1    1
     6     1     2   ar
     7     2     3   ar
     8     3    15    1
     9    15    16    1
    10    16    17    2
    11    16    18   am
    12    18    19    1
    13    19    20    1
    14    20    21    1
    15    18    23    1
    16    23    24    1
    17    24    25   ar
    18    25    26   ar
    19    26    27   ar
    20    27    30    1
    21    30    31   ar
    22    31    32   ar
    23    32    33   ar
    24    33    34    1
    25    33    35   ar
    26    35    36   ar
    27    27    28   ar
    28    28    29   ar
    29     3     4   ar
    30     4    37    1
    31    37    38    1
    32    38    39    1
    33    39    40   ar
    34    40    41   ar
    35    41    42   ar
    36    42    43    1
    37    42    44   ar
    38    44    45   ar
    39     4     5   ar
    40     5     6   ar
    41     6     7    2
    42    12    13   ar
    43    13    14   ar
    44    14    10   ar
    45     6     1   ar
    46    29    24   ar
    47    45    39   ar
    48    36    30   ar
    49    21    22    1
@<TRIPOS>MOLECULE
*****
 45 49 0 0 0
SMALL
GASTEIGER

@<TRIPOS>ATOM
      1 C          61.5529   88.5631   10.6306 C.ar    1  UNL1        0.0574
      2 C          62.2915   88.3436   11.9175 C.ar    1  UNL1        0.0786
      3 N          63.1015   89.4551   12.5163 N.ar    1  UNL1       -0.2979
      4 C          63.1728   90.7860   11.8281 C.ar    1  UNL1        0.1750
      5 N          62.4342   91.0055   10.5412 N.ar    1  UNL1       -0.1847
      6 C          61.6242   89.8941    9.9424 C.ar    1  UNL1        0.2786
      7 O          60.8855   90.1135    8.6555 O.2     1  UNL1       -0.2654
      8 C          60.7429   87.4516   10.0317 C.3     1  UNL1        0.0622
      9 C          61.5426   84.3595    5.8270 C.3     1  UNL1        0.1537
     10 N          61.7444   85.0797    7.1272 N.ar    1  UNL1       -0.2477
     11 C          60.7658   86.0095    7.7813 C.ar    1  UNL1        0.0927
     12 C          61.3768   86.5010    9.0599 C.ar    1  UNL1        0.0220
     13 C          62.7332   85.8750    9.1962 C.ar    1  UNL1        0.1177
     14 N          62.9604   84.9966    8.0017 N.ar    1  UNL1       -0.1679
     15 C          63.8402   89.2356   13.8032 C.3     1  UNL1        0.1934
     16 C          63.9517   87.8546   14.3779 C.2     1  UNL1        0.2491
     17 O          64.3833   86.7123   13.5067 O.2     1  UNL1       -0.2727
     18 N          63.6315   87.6158   15.8237 N.am    1  UNL1       -0.2713
     19 C          63.1999   88.7580   16.6950 C.3     1  UNL1        0.1254
     20 C          63.1283   90.1461   16.1309 C.3     1  UNL1        0.1586
     21 O          63.5163   91.3210   16.9787 O.3     1  UNL1       -0.3802
     22 H          62.8886   91.4115   17.7127 H       1  UNL1        0.2105
     23 C          63.7430   86.2347   16.3984 C.3     1  UNL1        0.1203
     24 C          63.5707   85.0372   15.5116 C.ar    1  UNL1       -0.0023
     25 C          62.1959   84.5173   15.2121 C.ar    1  UNL1       -0.0026
     26 C          62.0236   83.3198   14.3253 C.ar    1  UNL1       -0.0003
     27 C          63.2261   82.6423   13.7380 C.ar    1  UNL1       -0.0000
     28 C          64.6009   83.1622   14.0375 C.ar    1  UNL1       -0.0003
     29 C          64.7732   84.3597   14.9243 C.ar    1  UNL1       -0.0026
     30 C          63.0538   81.4448   12.8512 C.ar    1  UNL1        0.0001
     31 C          63.2240   81.5800   11.3670 C.ar    1  UNL1        0.0009
     32 C          63.0518   80.3826   10.4802 C.ar    1  UNL1        0.0114
     33 C          62.7093   79.0500   11.0776 C.ar    1  UNL1        0.0577
     34 CL         62.5371   77.8525   10.1908 Cl      1  UNL1       -0.0822
     35 C          62.5391   78.9148   12.5618 C.ar    1  UNL1        0.0114
     36 C          62.7114   80.1122   13.4486 C.ar    1  UNL1        0.0009
     37 S          63.9828   91.8975   12.4270 S.3     1  UNL1       -0.0724
     38 C          65.4597   91.9694   12.1747 C.3     1  UNL1        0.0913
     39 C          66.4124   92.0909   13.3270 C.ar    1  UNL1       -0.0108
     40 C          65.8934   92.4008   14.6997 C.ar    1  UNL1       -0.0011
     41 C          66.8461   92.5223   15.8519 C.ar    1  UNL1        0.0293
     42 C          68.3178   92.3340   15.6313 C.ar    1  UNL1        0.1401
     43 F          69.2705   92.4555   16.7836 F       1  UNL1       -0.2042
     44 C          68.8368   92.0241   14.2585 C.ar    1  UNL1        0.0293
     45 C          67.8841   91.9026   13.1063 C.ar    1  UNL1       -0.0011
@<TRIPOS>BOND
     1     9    10    1
     2    10    11   ar
     3    11    12   ar
     4    12     8    1
     5     8     1    1
     6     1     2   ar
     7     2     3   ar
     8     3    15    1
     9    15    16    1
    10    16    17    2
    11    16    18   am
    12    18    19    1
    13    19    20    1
    14    20    21    1
    15    18    23    1
    16    23    24    1
    17    24    25   ar
    18    25    26   ar
    19    26    27   ar
    20    27    30    1
    21    30    31   ar
    22    31    32   ar
    23    32    33   ar
    24    33    34    1
    25    33    35   ar
    26    35    36   ar
    27    27    28   ar
    28    28    29   ar
    29     3     4   ar
    30     4    37    1
    31    37    38    1
    32    38    39    1
    33    39    40   ar
    34    40    41   ar
    35    41    42   ar
    36    42    43    1
    37    42    44   ar
    38    44    45   ar
    39     4     5   ar
    40     5     6   ar
    41     6     7    2
    42    12    13   ar
    43    13    14   ar
    44    14    10   ar
    45     6     1   ar
    46    29    24   ar
    47    45    39   ar
    48    36    30   ar
    49    21    22    1
@<TRIPOS>MOLECULE
*****
 45 49 0 0 0
SMALL
GASTEIGER

@<TRIPOS>ATOM
      1 C          62.3046   90.3975   11.6855 C.ar    1  UNL1        0.0574
      2 C          62.4712   89.9696   13.1134 C.ar    1  UNL1        0.0786
      3 N          63.6631   90.4289   13.8998 N.ar    1  UNL1       -0.2979
      4 C          64.6883   91.3162   13.2583 C.ar    1  UNL1        0.1750
      5 N          64.5217   91.7442   11.8303 N.ar    1  UNL1       -0.1847
      6 C          63.3299   91.2848   11.0439 C.ar    1  UNL1        0.2786
      7 O          63.1632   91.7128    9.6159 O.2     1  UNL1       -0.2654
      8 C          61.1127   89.9382   10.8990 C.3     1  UNL1        0.0622
      9 C          60.1455   85.9314    7.5989 C.3     1  UNL1        0.1537
     10 N          60.6625   86.7332    8.7564 N.ar    1  UNL1       -0.2477
     11 C          60.3985   88.1880    9.0091 C.ar    1  UNL1        0.0927
     12 C          61.1071   88.5749   10.2733 C.ar    1  UNL1        0.0220
     13 C          61.8090   87.3592   10.8020 C.ar    1  UNL1        0.1177
     14 N          61.5342   86.2210    9.8645 N.ar    1  UNL1       -0.1679
     15 C          63.8297   90.0010   15.3278 C.3     1  UNL1        0.1934
     16 C          63.1619   88.7508   15.8189 C.2     1  UNL1        0.2491
     17 O          61.8574   88.8367   16.5546 O.2     1  UNL1       -0.2727
     18 N          63.7985   87.4148   15.5745 N.am    1  UNL1       -0.2713
     19 C          65.1030   87.3289   14.8389 C.3     1  UNL1        0.1254
     20 C          66.1211   86.3011   15.2350 C.3     1  UNL1        0.1586
     21 O          66.3492   85.0985   14.3680 O.3     1  UNL1       -0.3802
     22 H          65.5524   84.5454   14.3661 H       1  UNL1        0.2105
     23 C          63.1307   86.1647   16.0656 C.3     1  UNL1        0.1203
     24 C          63.0647   84.9534   15.1832 C.ar    1  UNL1       -0.0023
     25 C          63.0364   85.1126   13.6919 C.ar    1  UNL1       -0.0026
     26 C          62.9703   83.9014   12.8095 C.ar    1  UNL1       -0.0003
     27 C          62.9326   82.5311   13.4184 C.ar    1  UNL1       -0.0000
     28 C          62.9610   82.3720   14.9097 C.ar    1  UNL1       -0.0003
     29 C          63.0270   83.5831   15.7920 C.ar    1  UNL1       -0.0026
     30 C          62.8666   81.3198   12.5360 C.ar    1  UNL1        0.0001
     31 C          63.1651   81.4420   11.0711 C.ar    1  UNL1        0.0009
     32 C          63.0991   80.2308   10.1887 C.ar    1  UNL1        0.0114
     33 C          62.7346   78.8975   10.7712 C.ar    1  UNL1        0.0577
     34 CL         62.6686   77.6862    9.8888 Cl      1  UNL1       -0.0822
     35 C          62.4361   78.7753   12.2361 C.ar    1  UNL1        0.0114
     36 C          62.5022   79.9865   13.1185 C.ar    1  UNL1        0.0009
     37 S          65.8802   91.7756   14.0448 S.3     1  UNL1       -0.0724
     38 C          67.1800   92.0469   13.3470 C.3     1  UNL1        0.0913
     39 C          67.1881   92.7590   12.0267 C.ar    1  UNL1       -0.0108
     40 C          67.8336   92.1192   10.8335 C.ar    1  UNL1       -0.0011
     41 C          67.8417   92.8312    9.5133 C.ar    1  UNL1        0.0293
     42 C          67.2043   94.1831    9.3864 C.ar    1  UNL1        0.1401
     43 F          67.2124   94.8952    8.0662 F       1  UNL1       -0.2042
     44 C          66.5588   94.8229   10.5797 C.ar    1  UNL1        0.0293
     45 C          66.5507   94.1109   11.8998 C.ar    1  UNL1       -0.0011
@<TRIPOS>BOND
     1     9    10    1
     2    10    11   ar
     3    11    12   ar
     4    12     8    1
     5     8     1    1
     6     1     2   ar
     7     2     3   ar
     8     3    15    1
     9    15    16    1
    10    16    17    2
    11    16    18   am
    12    18    19    1
    13    19    20    1
    14    20    21    1
    15    18    23    1
    16    23    24    1
    17    24    25   ar
    18    25    26   ar
    19    26    27   ar
    20    27    30    1
    21    30    31   ar
    22    31    32   ar
    23    32    33   ar
    24    33    34    1
    25    33    35   ar
    26    35    36   ar
    27    27    28   ar
    28    28    29   ar
    29     3     4   ar
    30     4    37    1
    31    37    38    1
    32    38    39    1
    33    39    40   ar
    34    40    41   ar
    35    41    42   ar
    36    42    43    1
    37    42    44   ar
    38    44    45   ar
    39     4     5   ar
    40     5     6   ar
    41     6     7    2
    42    12    13   ar
    43    13    14   ar
    44    14    10   ar
    45     6     1   ar
    46    29    24   ar
    47    45    39   ar
    48    36    30   ar
    49    21    22    1
@<TRIPOS>MOLECULE
*****
 45 49 0 0 0
SMALL
GASTEIGER

@<TRIPOS>ATOM
      1 C          63.8016   85.3567   15.2269 C.ar    1  UNL1        0.0574
      2 C          63.7230   86.0152   13.8815 C.ar    1  UNL1        0.0786
      3 N          63.5445   87.5013   13.7831 N.ar    1  UNL1       -0.2979
      4 C          63.4447   88.3288   15.0302 C.ar    1  UNL1        0.1750
      5 N          63.5233   87.6704   16.3756 N.ar    1  UNL1       -0.1847
      6 C          63.7017   86.1843   16.4739 C.ar    1  UNL1        0.2786
      7 O          63.7804   85.5257   17.8194 O.2     1  UNL1       -0.2654
      8 C          63.9800   83.8706   15.3253 C.3     1  UNL1        0.0622
      9 C          63.2299   81.2332   10.8128 C.3     1  UNL1        0.1537
     10 N          63.0441   81.7610   12.2046 N.ar    1  UNL1       -0.2477
     11 C          63.9554   82.7186   12.9134 C.ar    1  UNL1        0.0927
     12 C          63.3889   82.9733   14.2787 C.ar    1  UNL1        0.0220
     13 C          62.1273   82.1731   14.4137 C.ar    1  UNL1        0.1177
     14 N          61.9142   81.4238   13.1319 N.ar    1  UNL1       -0.1679
     15 C          63.4659   88.1598   12.4376 C.3     1  UNL1        0.1934
     16 C          62.1447   88.2799   11.7375 C.2     1  UNL1        0.2491
     17 O          61.4072   89.5861   11.7464 O.2     1  UNL1       -0.2727
     18 N          61.5612   87.0939   11.0284 N.am    1  UNL1       -0.2713
     19 C          62.2987   85.7878   11.0194 C.3     1  UNL1        0.1254
     20 C          62.6638   85.1415    9.7160 C.3     1  UNL1        0.1586
     21 O          62.9097   85.9878    8.5022 O.3     1  UNL1       -0.3802
     22 H          62.0845   86.4258    8.2408 H       1  UNL1        0.2105
     23 C          60.2401   87.2140   10.3282 C.3     1  UNL1        0.1203
     24 C          60.1098   88.0899    9.1174 C.ar    1  UNL1       -0.0023
     25 C          59.4625   87.5580    7.8732 C.ar    1  UNL1       -0.0026
     26 C          59.3323   88.4337    6.6624 C.ar    1  UNL1       -0.0003
     27 C          59.8494   89.8413    6.6958 C.ar    1  UNL1       -0.0000
     28 C          60.4967   90.3732    7.9400 C.ar    1  UNL1       -0.0003
     29 C          60.6269   89.4975    9.1508 C.ar    1  UNL1       -0.0026
     30 C          59.7191   90.7171    5.4850 C.ar    1  UNL1        0.0001
     31 C          60.9399   91.1018    4.7028 C.ar    1  UNL1        0.0009
     32 C          60.8097   91.9776    3.4920 C.ar    1  UNL1        0.0114
     33 C          59.4588   92.4687    3.0634 C.ar    1  UNL1        0.0577
     34 CL         59.3286   93.3445    1.8526 Cl      1  UNL1       -0.0822
     35 C          58.2380   92.0840    3.8456 C.ar    1  UNL1        0.0114
     36 C          58.3682   91.2082    5.0563 C.ar    1  UNL1        0.0009
     37 S          63.2662   89.8150   14.9317 S.3     1  UNL1       -0.0724
     38 C          64.4341   90.7275   15.1622 C.3     1  UNL1        0.0913
     39 C          65.1558   91.3316   13.9941 C.ar    1  UNL1       -0.0108
     40 C          64.4134   91.6261   12.7245 C.ar    1  UNL1       -0.0011
     41 C          65.1351   92.2302   11.5565 C.ar    1  UNL1        0.0293
     42 C          66.5992   92.5398   11.6582 C.ar    1  UNL1        0.1401
     43 F          67.3209   93.1439   10.4901 F       1  UNL1       -0.2042
     44 C          67.3417   92.2453   12.9278 C.ar    1  UNL1        0.0293
     45 C          66.6200   91.6413   14.0958 C.ar    1  UNL1       -0.0011
@<TRIPOS>BOND
     1     9    10    1
     2    10    11   ar
     3    11    12   ar
     4    12     8    1
     5     8     1    1
     6     1     2   ar
     7     2     3   ar
     8     3    15    1
     9    15    16    1
    10    16    17    2
    11    16    18   am
    12    18    19    1
    13    19    20    1
    14    20    21    1
    15    18    23    1
    16    23    24    1
    17    24    25   ar
    18    25    26   ar
    19    26    27   ar
    20    27    30    1
    21    30    31   ar
    22    31    32   ar
    23    32    33   ar
    24    33    34    1
    25    33    35   ar
    26    35    36   ar
    27    27    28   ar
    28    28    29   ar
    29     3     4   ar
    30     4    37    1
    31    37    38    1
    32    38    39    1
    33    39    40   ar
    34    40    41   ar
    35    41    42   ar
    36    42    43    1
    37    42    44   ar
    38    44    45   ar
    39     4     5   ar
    40     5     6   ar
    41     6     7    2
    42    12    13   ar
    43    13    14   ar
    44    14    10   ar
    45     6     1   ar
    46    29    24   ar
    47    45    39   ar
    48    36    30   ar
    49    21    22    1
@<TRIPOS>MOLECULE
*****
 45 49 0 0 0
SMALL
GASTEIGER

@<TRIPOS>ATOM
      1 C          63.1680   85.3180   12.0039 C.ar    1  UNL1        0.0574
      2 C          62.4444   86.3443   11.1835 C.ar    1  UNL1        0.0786
      3 N          62.4531   87.7837   11.6052 N.ar    1  UNL1       -0.2979
      4 C          63.1854   88.1969   12.8474 C.ar    1  UNL1        0.1750
      5 N          63.9090   87.1707   13.6678 N.ar    1  UNL1       -0.1847
      6 C          63.9003   85.7313   13.2461 C.ar    1  UNL1        0.2786
      7 O          64.6240   84.7049   14.0665 O.2     1  UNL1       -0.2654
      8 C          63.1594   83.8785   11.5822 C.3     1  UNL1        0.0622
      9 C          62.0395   79.1805   13.7164 C.3     1  UNL1        0.1537
     10 N          62.1740   80.6611   13.5166 N.ar    1  UNL1       -0.2477
     11 C          62.7510   81.3390   12.3093 C.ar    1  UNL1        0.0927
     12 C          62.6888   82.8205   12.5356 C.ar    1  UNL1        0.0220
     13 C          62.0734   83.0582   13.8828 C.ar    1  UNL1        0.1177
     14 N          61.7552   81.7236   14.4891 N.ar    1  UNL1       -0.1679
     15 C          61.7294   88.8100   10.7848 C.3     1  UNL1        0.1934
     16 C          61.1622   88.4370    9.4472 C.2     1  UNL1        0.2491
     17 O          61.6449   87.2019    8.7459 O.2     1  UNL1       -0.2727
     18 N          60.1124   89.2989    8.8109 N.am    1  UNL1       -0.2713
     19 C          59.6298   90.5340    9.5121 C.3     1  UNL1        0.1254
     20 C          59.4408   90.5262   11.0001 C.3     1  UNL1        0.1586
     21 O          58.6160   91.5930   11.6570 O.3     1  UNL1       -0.3802
     22 H          59.0559   92.4513   11.5537 H       1  UNL1        0.2105
     23 C          59.5452   88.9259    7.4733 C.3     1  UNL1        0.1203
     24 C          59.5784   89.9117    6.3432 C.ar    1  UNL1       -0.0023
     25 C          60.8820   90.2551    5.6855 C.ar    1  UNL1       -0.0026
     26 C          60.9152   91.2409    4.5554 C.ar    1  UNL1       -0.0003
     27 C          59.6448   91.8834    4.0831 C.ar    1  UNL1       -0.0000
     28 C          58.3411   91.5401    4.7409 C.ar    1  UNL1       -0.0003
     29 C          58.3079   90.5543    5.8709 C.ar    1  UNL1       -0.0026
     30 C          59.6780   92.8692    2.9530 C.ar    1  UNL1        0.0001
     31 C          59.0934   92.5032    1.6210 C.ar    1  UNL1        0.0009
     32 C          59.1265   93.4890    0.4910 C.ar    1  UNL1        0.0114
     33 C          59.7442   94.8408    0.6929 C.ar    1  UNL1        0.0577
     34 CL         59.7774   95.8267   -0.4372 Cl      1  UNL1       -0.0822
     35 C          60.3289   95.2069    2.0249 C.ar    1  UNL1        0.0114
     36 C          60.2957   94.2211    3.1550 C.ar    1  UNL1        0.0009
     37 S          63.1940   89.6364   13.2691 S.3     1  UNL1       -0.0724
     38 C          64.0370   90.6304   12.5266 C.3     1  UNL1        0.0913
     39 C          65.0028   91.5015   13.2741 C.ar    1  UNL1       -0.0108
     40 C          65.3711   91.1699   14.6898 C.ar    1  UNL1       -0.0011
     41 C          66.3368   92.0410   15.4372 C.ar    1  UNL1        0.0293
     42 C          66.9343   93.2436   14.7688 C.ar    1  UNL1        0.1401
     43 F          67.9001   94.1146   15.5162 F       1  UNL1       -0.2042
     44 C          66.5660   93.5751   13.3530 C.ar    1  UNL1        0.0293
     45 C          65.6003   92.7041   12.6057 C.ar    1  UNL1       -0.0011
@<TRIPOS>BOND
     1     9    10    1
     2    10    11   ar
     3    11    12   ar
     4    12     8    1
     5     8     1    1
     6     1     2   ar
     7     2     3   ar
     8     3    15    1
     9    15    16    1
    10    16    17    2
    11    16    18   am
    12    18    19    1
    13    19    20    1
    14    20    21    1
    15    18    23    1
    16    23    24    1
    17    24    25   ar
    18    25    26   ar
    19    26    27   ar
    20    27    30    1
    21    30    31   ar
    22    31    32   ar
    23    32    33   ar
    24    33    34    1
    25    33    35   ar
    26    35    36   ar
    27    27    28   ar
    28    28    29   ar
    29     3     4   ar
    30     4    37    1
    31    37    38    1
    32    38    39    1
    33    39    40   ar
    34    40    41   ar
    35    41    42   ar
    36    42    43    1
    37    42    44   ar
    38    44    45   ar
    39     4     5   ar
    40     5     6   ar
    41     6     7    2
    42    12    13   ar
    43    13    14   ar
    44    14    10   ar
    45     6     1   ar
    46    29    24   ar
    47    45    39   ar
    48    36    30   ar
    49    21    22    1
@<TRIPOS>MOLECULE
*****
 45 49 0 0 0
SMALL
GASTEIGER

@<TRIPOS>ATOM
      1 C          62.7737   85.5970   13.0168 C.ar    1  UNL1        0.0574
      2 C          61.9327   85.5276   11.7768 C.ar    1  UNL1        0.0786
      3 N          61.8099   86.7280   10.8858 N.ar    1  UNL1       -0.2979
      4 C          62.5281   87.9978   11.2349 C.ar    1  UNL1        0.1750
      5 N          63.3691   88.0672   12.4749 N.ar    1  UNL1       -0.1847
      6 C          63.4919   86.8668   13.3659 C.ar    1  UNL1        0.2786
      7 O          64.3329   86.9361   14.6061 O.2     1  UNL1       -0.2654
      8 C          62.8965   84.3965   13.9079 C.3     1  UNL1        0.0622
      9 C          63.0310   80.2487   10.6433 C.3     1  UNL1        0.1537
     10 N          62.7719   81.1135   11.8412 N.ar    1  UNL1       -0.2477
     11 C          63.1647   82.5534   11.9907 C.ar    1  UNL1        0.0927
     12 C          62.7101   83.0201   13.3418 C.ar    1  UNL1        0.0220
     13 C          62.0363   81.8685   14.0274 C.ar    1  UNL1        0.1177
     14 N          62.0745   80.6902   13.1000 N.ar    1  UNL1       -0.1679
     15 C          60.9689   86.6587    9.6456 C.3     1  UNL1        0.1934
     16 C          60.1061   87.8231    9.2585 C.2     1  UNL1        0.2491
     17 O          59.7023   88.8334   10.2911 O.2     1  UNL1       -0.2727
     18 N          59.6471   87.9771    7.8388 N.am    1  UNL1       -0.2713
     19 C          60.0508   86.9668    6.8062 C.3     1  UNL1        0.1254
     20 C          60.2517   85.5329    7.1981 C.3     1  UNL1        0.1586
     21 O          60.8841   84.5735    6.2341 O.3     1  UNL1       -0.3802
     22 H          60.3005   84.4524    5.4688 H       1  UNL1        0.2105
     23 C          58.7843   89.1415    7.4517 C.3     1  UNL1        0.1203
     24 C          59.1821   90.0206    6.3031 C.ar    1  UNL1       -0.0023
     25 C          60.6188   90.0953    5.8784 C.ar    1  UNL1       -0.0026
     26 C          61.0166   90.9743    4.7299 C.ar    1  UNL1       -0.0003
     27 C          59.9777   91.7786    4.0062 C.ar    1  UNL1       -0.0000
     28 C          58.5411   91.7039    4.4310 C.ar    1  UNL1       -0.0003
     29 C          58.1432   90.8249    5.5794 C.ar    1  UNL1       -0.0026
     30 C          60.3755   92.6577    2.8576 C.ar    1  UNL1        0.0001
     31 C          61.8249   92.9465    2.6012 C.ar    1  UNL1        0.0009
     32 C          62.2227   93.8255    1.4527 C.ar    1  UNL1        0.0114
     33 C          61.1711   94.4157    0.5607 C.ar    1  UNL1        0.0577
     34 CL         61.5689   95.2947   -0.5879 Cl      1  UNL1       -0.0822
     35 C          59.7217   94.1269    0.8171 C.ar    1  UNL1        0.0114
     36 C          59.3239   93.2479    1.9656 C.ar    1  UNL1        0.0009
     37 S          62.4053   89.1982   10.3438 S.3     1  UNL1       -0.0724
     38 C          62.3172   90.5707   10.9424 C.3     1  UNL1        0.0913
     39 C          63.5470   91.2284   11.4948 C.ar    1  UNL1       -0.0108
     40 C          64.4468   92.0166   10.5897 C.ar    1  UNL1       -0.0011
     41 C          65.6766   92.6742   11.1421 C.ar    1  UNL1        0.0293
     42 C          66.0065   92.5437   12.5996 C.ar    1  UNL1        0.1401
     43 F          67.2363   93.2014   13.1520 F       1  UNL1       -0.2042
     44 C          65.1067   91.7556   13.5046 C.ar    1  UNL1        0.0293
     45 C          63.8770   91.0980   12.9522 C.ar    1  UNL1       -0.0011
@<TRIPOS>BOND
     1     9    10    1
     2    10    11   ar
     3    11    12   ar
     4    12     8    1
     5     8     1    1
     6     1     2   ar
     7     2     3   ar
     8     3    15    1
     9    15    16    1
    10    16    17    2
    11    16    18   am
    12    18    19    1
    13    19    20    1
    14    20    21    1
    15    18    23    1
    16    23    24    1
    17    24    25   ar
    18    25    26   ar
    19    26    27   ar
    20    27    30    1
    21    30    31   ar
    22    31    32   ar
    23    32    33   ar
    24    33    34    1
    25    33    35   ar
    26    35    36   ar
    27    27    28   ar
    28    28    29   ar
    29     3     4   ar
    30     4    37    1
    31    37    38    1
    32    38    39    1
    33    39    40   ar
    34    40    41   ar
    35    41    42   ar
    36    42    43    1
    37    42    44   ar
    38    44    45   ar
    39     4     5   ar
    40     5     6   ar
    41     6     7    2
    42    12    13   ar
    43    13    14   ar
    44    14    10   ar
    45     6     1   ar
    46    29    24   ar
    47    45    39   ar
    48    36    30   ar
    49    21    22    1
@<TRIPOS>MOLECULE
*****
 45 49 0 0 0
SMALL
GASTEIGER

@<TRIPOS>ATOM
      1 C          63.8761   90.9879   15.3181 C.ar    1  UNL1        0.0574
      2 C          63.5542   91.1540   13.8625 C.ar    1  UNL1        0.0786
      3 N          64.3033   92.1592   13.0388 N.ar    1  UNL1       -0.2979
      4 C          65.3741   92.9982   13.6707 C.ar    1  UNL1        0.1750
      5 N          65.6960   92.8321   15.1263 N.ar    1  UNL1       -0.1847
      6 C          64.9469   91.8269   15.9500 C.ar    1  UNL1        0.2786
      7 O          65.2687   91.6607   17.4057 O.2     1  UNL1       -0.2654
      8 C          63.1270   89.9827   16.1419 C.3     1  UNL1        0.0622
      9 C          65.2974   85.4314   14.5750 C.3     1  UNL1        0.1537
     10 N          64.4644   86.4334   15.3181 N.ar    1  UNL1       -0.2477
     11 C          64.4347   87.9124   15.0701 C.ar    1  UNL1        0.0927
     12 C          63.4668   88.5254   16.0383 C.ar    1  UNL1        0.0220
     13 C          62.8984   87.4251   16.8847 C.ar    1  UNL1        0.1177
     14 N          63.5149   86.1322   16.4396 N.ar    1  UNL1       -0.1679
     15 C          63.9815   92.3254   11.5832 C.3     1  UNL1        0.1934
     16 C          63.7404   91.1184   10.7258 C.2     1  UNL1        0.2491
     17 O          64.8867   90.4629   10.0142 O.2     1  UNL1       -0.2727
     18 N          62.3531   90.5669   10.5801 N.am    1  UNL1       -0.2713
     19 C          61.2068   91.2224   11.2918 C.3     1  UNL1        0.1254
     20 C          59.8565   90.5694   11.2990 C.3     1  UNL1        0.1586
     21 O          58.6392   91.3679   11.6604 O.3     1  UNL1       -0.3802
     22 H          58.6940   91.6378   12.5905 H       1  UNL1        0.2105
     23 C          62.1121   89.3599    9.7228 C.3     1  UNL1        0.1203
     24 C          62.2366   87.9854   10.3106 C.ar    1  UNL1       -0.0023
     25 C          61.9714   86.7790    9.4596 C.ar    1  UNL1       -0.0026
     26 C          62.0959   85.4046   10.0474 C.ar    1  UNL1       -0.0003
     27 C          62.4857   85.2366   11.4860 C.ar    1  UNL1       -0.0000
     28 C          62.7510   86.4431   12.3370 C.ar    1  UNL1       -0.0003
     29 C          62.6264   87.8175   11.7493 C.ar    1  UNL1       -0.0026
     30 C          62.6103   83.8622   12.0738 C.ar    1  UNL1        0.0001
     31 C          62.3918   83.6521   13.5429 C.ar    1  UNL1        0.0009
     32 C          62.5163   82.2778   14.1307 C.ar    1  UNL1        0.0114
     33 C          62.8593   81.1134   13.2495 C.ar    1  UNL1        0.0577
     34 CL         62.9839   79.7390   13.8373 Cl      1  UNL1       -0.0822
     35 C          63.0778   81.3235   11.7804 C.ar    1  UNL1        0.0114
     36 C          62.9533   82.6978   11.1926 C.ar    1  UNL1        0.0009
     37 S          66.1232   94.0035   12.8469 S.3     1  UNL1       -0.0724
     38 C          65.8791   94.0939   11.3697 C.3     1  UNL1        0.0913
     39 C          66.8727   93.5118   10.4084 C.ar    1  UNL1       -0.0108
     40 C          67.2262   94.2543    9.1539 C.ar    1  UNL1       -0.0011
     41 C          68.2197   93.6722    8.1927 C.ar    1  UNL1        0.0293
     42 C          68.8596   92.3476    8.4858 C.ar    1  UNL1        0.1401
     43 F          69.8531   91.7655    7.5244 F       1  UNL1       -0.2042
     44 C          68.5060   91.6051    9.7402 C.ar    1  UNL1        0.0293
     45 C          67.5125   92.1872   10.7015 C.ar    1  UNL1       -0.0011
@<TRIPOS>BOND
     1     9    10    1
     2    10    11   ar
     3    11    12   ar
     4    12     8    1
     5     8     1    1
     6     1     2   ar
     7     2     3   ar
     8     3    15    1
     9    15    16    1
    10    16    17    2
    11    16    18   am
    12    18    19    1
    13    19    20    1
    14    20    21    1
    15    18    23    1
    16    23    24    1
    17    24    25   ar
    18    25    26   ar
    19    26    27   ar
    20    27    30    1
    21    30    31   ar
    22    31    32   ar
    23    32    33   ar
    24    33    34    1
    25    33    35   ar
    26    35    36   ar
    27    27    28   ar
    28    28    29   ar
    29     3     4   ar
    30     4    37    1
    31    37    38    1
    32    38    39    1
    33    39    40   ar
    34    40    41   ar
    35    41    42   ar
    36    42    43    1
    37    42    44   ar
    38    44    45   ar
    39     4     5   ar
    40     5     6   ar
    41     6     7    2
    42    12    13   ar
    43    13    14   ar
    44    14    10   ar
    45     6     1   ar
    46    29    24   ar
    47    45    39   ar
    48    36    30   ar
    49    21    22    1
@<TRIPOS>MOLECULE
*****
 45 49 0 0 0
SMALL
GASTEIGER

@<TRIPOS>ATOM
      1 C          63.4048   82.7898   13.0560 C.ar    1  UNL1        0.0574
      2 C          63.2369   83.9306   14.0154 C.ar    1  UNL1        0.0786
      3 N          63.0800   85.3294   13.4971 N.ar    1  UNL1       -0.2979
      4 C          63.0911   85.5875   12.0195 C.ar    1  UNL1        0.1750
      5 N          63.2590   84.4467   11.0602 N.ar    1  UNL1       -0.1847
      6 C          63.4158   83.0479   11.5784 C.ar    1  UNL1        0.2786
      7 O          63.5837   81.9070   10.6191 O.2     1  UNL1       -0.2654
      8 C          63.5616   81.3909   13.5743 C.3     1  UNL1        0.0622
      9 C          58.6475   79.7859   14.6493 C.3     1  UNL1        0.1537
     10 N          60.0954   79.7835   14.2572 N.ar    1  UNL1       -0.2477
     11 C          60.9962   80.9817   14.2034 C.ar    1  UNL1        0.0927
     12 C          62.3542   80.5213   13.7631 C.ar    1  UNL1        0.0220
     13 C          62.2927   79.0385   13.5449 C.ar    1  UNL1        0.1177
     14 N          60.8967   78.5825   13.8502 N.ar    1  UNL1       -0.1679
     15 C          62.9121   86.4703   14.4564 C.3     1  UNL1        0.1934
     16 C          64.0533   87.4098   14.7116 C.2     1  UNL1        0.2491
     17 O          65.4337   86.8686   14.9394 O.2     1  UNL1       -0.2727
     18 N          63.8142   88.8903   14.7391 N.am    1  UNL1       -0.2713
     19 C          62.4338   89.4315   14.5114 C.3     1  UNL1        0.1254
     20 C          61.9734   89.7504   13.1199 C.3     1  UNL1        0.1586
     21 O          60.5256   90.0412   12.8572 O.3     1  UNL1       -0.3802
     22 H          60.0002   89.2428   13.0231 H       1  UNL1        0.2105
     23 C          64.9554   89.8297   14.9943 C.3     1  UNL1        0.1203
     24 C          65.3488   90.8329   13.9507 C.ar    1  UNL1       -0.0023
     25 C          66.5888   91.6572   14.1325 C.ar    1  UNL1       -0.0026
     26 C          66.9822   92.6603   13.0890 C.ar    1  UNL1       -0.0003
     27 C          66.1357   92.8390   11.8637 C.ar    1  UNL1       -0.0000
     28 C          64.8958   92.0147   11.6819 C.ar    1  UNL1       -0.0003
     29 C          64.5023   91.0116   12.7254 C.ar    1  UNL1       -0.0026
     30 C          66.5291   93.8422   10.8201 C.ar    1  UNL1        0.0001
     31 C          66.1855   95.2905   11.0048 C.ar    1  UNL1        0.0009
     32 C          66.5789   96.2937    9.9613 C.ar    1  UNL1        0.0114
     33 C          67.3158   95.8484    8.7330 C.ar    1  UNL1        0.0577
     34 CL         67.7092   96.8515    7.6894 Cl      1  UNL1       -0.0822
     35 C          67.6594   94.4000    8.5483 C.ar    1  UNL1        0.0114
     36 C          67.2660   93.3969    9.5918 C.ar    1  UNL1        0.0009
     37 S          62.9342   86.9864   11.5013 S.3     1  UNL1       -0.0724
     38 C          61.8280   87.3111   10.5417 C.3     1  UNL1        0.0913
     39 C          61.6952   86.5405    9.2616 C.ar    1  UNL1       -0.0108
     40 C          62.8962   85.8733    8.6598 C.ar    1  UNL1       -0.0011
     41 C          62.7634   85.1028    7.3797 C.ar    1  UNL1        0.0293
     42 C          61.4295   84.9995    6.7015 C.ar    1  UNL1        0.1401
     43 F          61.2967   84.2289    5.4213 F       1  UNL1       -0.2042
     44 C          60.2284   85.6668    7.3032 C.ar    1  UNL1        0.0293
     45 C          60.3613   86.4373    8.5833 C.ar    1  UNL1       -0.0011
@<TRIPOS>BOND
     1     9    10    1
     2    10    11   ar
     3    11    12   ar
     4    12     8    1
     5     8     1    1
     6     1     2   ar
     7     2     3   ar
     8     3    15    1
     9    15    16    1
    10    16    17    2
    11    16    18   am
    12    18    19    1
    13    19    20    1
    14    20    21    1
    15    18    23    1
    16    23    24    1
    17    24    25   ar
    18    25    26   ar
    19    26    27   ar
    20    27    30    1
    21    30    31   ar
    22    31    32   ar
    23    32    33   ar
    24    33    34    1
    25    33    35   ar
    26    35    36   ar
    27    27    28   ar
    28    28    29   ar
    29     3     4   ar
    30     4    37    1
    31    37    38    1
    32    38    39    1
    33    39    40   ar
    34    40    41   ar
    35    41    42   ar
    36    42    43    1
    37    42    44   ar
    38    44    45   ar
    39     4     5   ar
    40     5     6   ar
    41     6     7    2
    42    12    13   ar
    43    13    14   ar
    44    14    10   ar
    45     6     1   ar
    46    29    24   ar
    47    45    39   ar
    48    36    30   ar
    49    21    22    1
