@<TRIPOS>MOLECULE
*****
 33 36 0 0 0
SMALL
GASTEIGER

@<TRIPOS>ATOM
      1 C          60.8830   88.9419    9.1712 C.ar    1  UNL1        0.0504
      2 C          62.0003   89.3810   10.0705 C.ar    1  UNL1        0.0160
      3 C          62.5683   88.4288   11.0808 C.ar    1  UNL1        0.0200
      4 C          62.0189   87.0375   11.1918 C.ar    1  UNL1        0.1104
      5 C          60.9016   86.5983   10.2925 C.ar    1  UNL1        0.0200
      6 C          60.3337   87.5505    9.2823 C.ar    1  UNL1        0.0160
      7 O          59.3619   87.8908    6.8087 O.2     1  UNL1       -0.2748
      8 C          59.5545   89.3686    6.9796 C.2     1  UNL1        0.2260
      9 N          60.3150   89.8941    8.1609 N.am    1  UNL1       -0.2839
     10 H          60.4414   90.8640    8.2731 H       1  UNL1        0.1549
     11 C          58.9865   90.3208    5.9693 C.3     1  UNL1        0.0812
     12 C          57.8082   91.0336    5.3749 C.3     1  UNL1        0.0143
     13 C          59.1811   91.2571    4.8137 C.3     1  UNL1        0.0330
     14 C          60.0861   91.9268    3.8225 C.ar    1  UNL1       -0.0029
     15 C          61.5525   91.6111    3.8132 C.ar    1  UNL1       -0.0011
     16 C          62.4575   92.2808    2.8220 C.ar    1  UNL1        0.0204
     17 C          61.8962   93.2661    1.8401 C.ar    1  UNL1        0.0989
     18 N          60.4298   93.5817    1.8494 N.ar    1  UNL1       -0.2426
     19 C          59.5247   92.9120    2.8407 C.ar    1  UNL1        0.0946
     20 S          62.5869   86.0853   12.2022 S.O2    1  UNL1        0.0275
     21 O          61.9141   84.9416   11.5027 O.2     1  UNL1       -0.1642
     22 O          63.2597   87.2289   12.9017 O.2     1  UNL1       -0.1642
     23 C          63.1549   85.1332   13.2125 C.ar    1  UNL1        0.1133
     24 C          64.3041   85.5563   14.0788 C.ar    1  UNL1        0.0190
     25 C          64.8721   84.6042   15.0891 C.ar    1  UNL1        0.0044
     26 C          64.2909   83.2289   15.2332 C.ar    1  UNL1        0.0373
     27 C          63.1418   82.8057   14.3670 C.ar    1  UNL1        0.1481
     28 C          62.5737   83.7578   13.3566 C.ar    1  UNL1        0.0559
     29 O          62.5606   81.4304   14.5112 O.3     1  UNL1       -0.4044
     30 C          62.5302   80.5018   13.3336 C.3     1  UNL1        0.5753
     31 F          62.4999   79.5732   12.1560 F       1  UNL1       -0.1328
     32 F          63.9656   80.8251   13.0417 F       1  UNL1       -0.1328
     33 F          61.0949   80.1786   13.6255 F       1  UNL1       -0.1328
@<TRIPOS>BOND
     1     7     8    2
     2     8     9   am
     3     9     1    1
     4     1     2   ar
     5     2     3   ar
     6     3     4   ar
     7     4    20    1
     8    20    21    2
     9    20    22    2
    10    20    23    1
    11    23    24   ar
    12    24    25   ar
    13    25    26   ar
    14    26    27   ar
    15    27    29    1
    16    29    30    1
    17    30    31    1
    18    30    32    1
    19    30    33    1
    20    27    28   ar
    21     4     5   ar
    22     5     6   ar
    23    11     8    1
    24    11    12    1
    25    12    13    1
    26    13    14    1
    27    14    15   ar
    28    15    16   ar
    29    16    17   ar
    30    17    18   ar
    31    18    19   ar
    32     6     1   ar
    33    13    11    1
    34    19    14   ar
    35    28    23   ar
    36     9    10    1
@<TRIPOS>MOLECULE
*****
 33 36 0 0 0
SMALL
GASTEIGER

@<TRIPOS>ATOM
      1 C          59.6902   88.5155    7.7250 C.ar    1  UNL1        0.0504
      2 C          59.6547   87.0417    7.4484 C.ar    1  UNL1        0.0160
      3 C          60.4172   86.0952    8.3274 C.ar    1  UNL1        0.0200
      4 C          61.2152   86.6225    9.4829 C.ar    1  UNL1        0.1104
      5 C          61.2506   88.0963    9.7594 C.ar    1  UNL1        0.0200
      6 C          60.4881   89.0428    8.8805 C.ar    1  UNL1        0.0160
      7 O          61.1376   90.1427    5.6617 O.2     1  UNL1       -0.2748
      8 C          59.6513   90.2757    5.8144 C.2     1  UNL1        0.2260
      9 N          58.9276   89.4621    6.8460 N.am    1  UNL1       -0.2839
     10 H          57.9521   89.5494    6.9462 H       1  UNL1        0.1549
     11 C          58.8888   91.2223    4.9354 C.3     1  UNL1        0.0812
     12 C          57.6138   91.9328    4.5898 C.3     1  UNL1        0.0143
     13 C          58.8431   92.1513    3.7586 C.3     1  UNL1        0.0330
     14 C          59.5264   92.8138    2.5992 C.ar    1  UNL1       -0.0029
     15 C          60.9295   93.3231    2.7470 C.ar    1  UNL1       -0.0011
     16 C          61.6129   93.9856    1.5876 C.ar    1  UNL1        0.0204
     17 C          60.8932   94.1387    0.2805 C.ar    1  UNL1        0.0989
     18 N          59.4901   93.6294    0.1327 N.ar    1  UNL1       -0.2426
     19 C          58.8067   92.9669    1.2922 C.ar    1  UNL1        0.0946
     20 S          61.9778   85.6759   10.3619 S.O2    1  UNL1        0.0275
     21 O          61.2183   86.1729   11.5561 O.2     1  UNL1       -0.1642
     22 O          62.7372   85.1789    9.1677 O.2     1  UNL1       -0.1642
     23 C          62.7403   84.7293   11.2408 C.ar    1  UNL1        0.1133
     24 C          63.6145   83.6758   10.6277 C.ar    1  UNL1        0.0190
     25 C          64.3771   82.7292   11.5066 C.ar    1  UNL1        0.0044
     26 C          64.2654   82.8361   12.9986 C.ar    1  UNL1        0.0373
     27 C          63.3912   83.8896   13.6117 C.ar    1  UNL1        0.1481
     28 C          62.6286   84.8362   12.7328 C.ar    1  UNL1        0.0559
     29 O          63.2796   83.9965   15.1037 O.3     1  UNL1       -0.4044
     30 C          63.4721   85.3229   15.7771 C.3     1  UNL1        0.5753
     31 F          63.6646   86.6493   16.4505 F       1  UNL1       -0.1328
     32 F          62.1082   85.2092   16.3909 F       1  UNL1       -0.1328
     33 F          64.8360   85.4366   15.1633 F       1  UNL1       -0.1328
@<TRIPOS>BOND
     1     7     8    2
     2     8     9   am
     3     9     1    1
     4     1     2   ar
     5     2     3   ar
     6     3     4   ar
     7     4    20    1
     8    20    21    2
     9    20    22    2
    10    20    23    1
    11    23    24   ar
    12    24    25   ar
    13    25    26   ar
    14    26    27   ar
    15    27    29    1
    16    29    30    1
    17    30    31    1
    18    30    32    1
    19    30    33    1
    20    27    28   ar
    21     4     5   ar
    22     5     6   ar
    23    11     8    1
    24    11    12    1
    25    12    13    1
    26    13    14    1
    27    14    15   ar
    28    15    16   ar
    29    16    17   ar
    30    17    18   ar
    31    18    19   ar
    32     6     1   ar
    33    13    11    1
    34    19    14   ar
    35    28    23   ar
    36     9    10    1
@<TRIPOS>MOLECULE
*****
 33 36 0 0 0
SMALL
GASTEIGER

@<TRIPOS>ATOM
      1 C          59.6801   88.6112    7.6836 C.ar    1  UNL1        0.0504
      2 C          60.3933   89.2695    8.8272 C.ar    1  UNL1        0.0160
      3 C          61.1379   88.4351    9.8268 C.ar    1  UNL1        0.0200
      4 C          61.1693   86.9424    9.6828 C.ar    1  UNL1        0.1104
      5 C          60.4560   86.2841    8.5392 C.ar    1  UNL1        0.0200
      6 C          59.7115   87.1185    7.5396 C.ar    1  UNL1        0.0160
      7 O          61.1616   90.5816    5.9739 O.2     1  UNL1       -0.2748
      8 C          59.6762   90.4308    5.8291 C.2     1  UNL1        0.2260
      9 N          58.9355   89.4457    6.6839 N.am    1  UNL1       -0.2839
     10 H          57.9606   89.3467    6.5889 H       1  UNL1        0.1549
     11 C          58.9316   91.2653    4.8294 C.3     1  UNL1        0.0812
     12 C          57.6457   91.8540    4.3294 C.3     1  UNL1        0.0143
     13 C          58.9276   92.1218    3.5980 C.3     1  UNL1        0.0330
     14 C          59.6655   92.7709    2.4648 C.ar    1  UNL1       -0.0029
     15 C          58.9381   93.1264    1.2020 C.ar    1  UNL1       -0.0011
     16 C          59.6760   93.7755    0.0688 C.ar    1  UNL1        0.0204
     17 C          61.1413   94.0691    0.1984 C.ar    1  UNL1        0.0989
     18 N          61.8687   93.7136    1.4611 N.ar    1  UNL1       -0.2426
     19 C          61.1307   93.0645    2.5944 C.ar    1  UNL1        0.0946
     20 S          61.9139   86.1079   10.6825 S.O2    1  UNL1        0.0275
     21 O          62.6679   85.4453    9.5679 O.2     1  UNL1       -0.1642
     22 O          61.1600   86.7706   11.7971 O.2     1  UNL1       -0.1642
     23 C          62.6585   85.2735   11.6822 C.ar    1  UNL1        0.1133
     24 C          63.1216   85.8837   12.9719 C.ar    1  UNL1        0.0190
     25 C          63.8662   85.0493   13.9715 C.ar    1  UNL1        0.0044
     26 C          64.1477   83.6048   13.6816 C.ar    1  UNL1        0.0373
     27 C          63.6846   82.9946   12.3920 C.ar    1  UNL1        0.1481
     28 C          62.9400   83.8290   11.3922 C.ar    1  UNL1        0.0559
     29 O          63.9661   81.5501   12.1020 O.3     1  UNL1       -0.4044
     30 C          63.3666   80.8974   10.8918 C.3     1  UNL1        0.5753
     31 F          62.7672   80.2448    9.6816 F       1  UNL1       -0.1328
     32 F          64.2377   81.7387   10.0067 F       1  UNL1       -0.1328
     33 F          62.4956   80.0561   11.7769 F       1  UNL1       -0.1328
@<TRIPOS>BOND
     1     7     8    2
     2     8     9   am
     3     9     1    1
     4     1     2   ar
     5     2     3   ar
     6     3     4   ar
     7     4    20    1
     8    20    21    2
     9    20    22    2
    10    20    23    1
    11    23    24   ar
    12    24    25   ar
    13    25    26   ar
    14    26    27   ar
    15    27    29    1
    16    29    30    1
    17    30    31    1
    18    30    32    1
    19    30    33    1
    20    27    28   ar
    21     4     5   ar
    22     5     6   ar
    23    11     8    1
    24    11    12    1
    25    12    13    1
    26    13    14    1
    27    14    15   ar
    28    15    16   ar
    29    16    17   ar
    30    17    18   ar
    31    18    19   ar
    32     6     1   ar
    33    13    11    1
    34    19    14   ar
    35    28    23   ar
    36     9    10    1
@<TRIPOS>MOLECULE
*****
 33 36 0 0 0
SMALL
GASTEIGER

@<TRIPOS>ATOM
      1 C          64.2158   90.5146   12.9622 C.ar    1  UNL1        0.0504
      2 C          63.4173   89.7342   11.9606 C.ar    1  UNL1        0.0160
      3 C          63.1464   88.2767   12.1891 C.ar    1  UNL1        0.0200
      4 C          63.6738   87.5996   13.4192 C.ar    1  UNL1        0.1104
      5 C          64.4723   88.3800   14.4209 C.ar    1  UNL1        0.0200
      6 C          64.7433   89.8375   14.1924 C.ar    1  UNL1        0.0160
      7 O          67.0190   91.5666   13.1502 O.2     1  UNL1       -0.2748
      8 C          65.8884   92.4981   12.8277 C.2     1  UNL1        0.2260
      9 N          64.4868   91.9721   12.7338 N.am    1  UNL1       -0.2839
     10 H          63.7448   92.5835   12.5221 H       1  UNL1        0.1549
     11 C          66.1594   93.9557   12.5993 C.3     1  UNL1        0.0812
     12 C          66.5037   95.3128   13.1373 C.3     1  UNL1        0.0143
     13 C          66.2846   95.1230   11.6656 C.3     1  UNL1        0.0330
     14 C          66.2303   95.6872   10.2769 C.ar    1  UNL1       -0.0029
     15 C          64.9576   96.2915    9.7620 C.ar    1  UNL1       -0.0011
     16 C          64.9034   96.8558    8.3733 C.ar    1  UNL1        0.0204
     17 C          66.1219   96.8158    7.4993 C.ar    1  UNL1        0.0989
     18 N          67.3946   96.2115    8.0142 N.ar    1  UNL1       -0.2426
     19 C          67.4488   95.6472    9.4030 C.ar    1  UNL1        0.0946
     20 S          63.4028   86.1420   13.6477 S.O2    1  UNL1        0.0275
     21 O          63.9850   86.2497   15.0259 O.2     1  UNL1       -0.1642
     22 O          62.8206   86.0343   12.2695 O.2     1  UNL1       -0.1642
     23 C          63.1318   84.6845   13.8761 C.ar    1  UNL1        0.1133
     24 C          62.2703   84.2530   15.0258 C.ar    1  UNL1        0.0190
     25 C          61.9993   82.7955   15.2542 C.ar    1  UNL1        0.0044
     26 C          62.5897   81.7695   14.3330 C.ar    1  UNL1        0.0373
     27 C          63.4511   82.2009   13.1833 C.ar    1  UNL1        0.1481
     28 C          63.7222   83.6585   12.9549 C.ar    1  UNL1        0.0559
     29 O          64.0415   81.1749   12.2621 O.3     1  UNL1       -0.4044
     30 C          63.3209   80.7945   11.0027 C.3     1  UNL1        0.5753
     31 F          62.6002   80.4141    9.7434 F       1  UNL1       -0.1328
     32 F          62.6444   79.6701   11.7294 F       1  UNL1       -0.1328
     33 F          63.9973   81.9189   10.2760 F       1  UNL1       -0.1328
@<TRIPOS>BOND
     1     7     8    2
     2     8     9   am
     3     9     1    1
     4     1     2   ar
     5     2     3   ar
     6     3     4   ar
     7     4    20    1
     8    20    21    2
     9    20    22    2
    10    20    23    1
    11    23    24   ar
    12    24    25   ar
    13    25    26   ar
    14    26    27   ar
    15    27    29    1
    16    29    30    1
    17    30    31    1
    18    30    32    1
    19    30    33    1
    20    27    28   ar
    21     4     5   ar
    22     5     6   ar
    23    11     8    1
    24    11    12    1
    25    12    13    1
    26    13    14    1
    27    14    15   ar
    28    15    16   ar
    29    16    17   ar
    30    17    18   ar
    31    18    19   ar
    32     6     1   ar
    33    13    11    1
    34    19    14   ar
    35    28    23   ar
    36     9    10    1
@<TRIPOS>MOLECULE
*****
 33 36 0 0 0
SMALL
GASTEIGER

@<TRIPOS>ATOM
      1 C          72.3130   76.1744   14.2812 C.ar    1  UNL1        0.0504
      2 C          72.5892   77.6056   14.6355 C.ar    1  UNL1        0.0160
      3 C          72.5931   78.6559   13.5646 C.ar    1  UNL1        0.0200
      4 C          72.3207   78.2752   12.1396 C.ar    1  UNL1        0.1104
      5 C          72.0446   76.8440   11.7853 C.ar    1  UNL1        0.0200
      6 C          72.0407   75.7937   12.8561 C.ar    1  UNL1        0.0160
      7 O          69.7209   75.2897   15.5053 O.2     1  UNL1       -0.2748
      8 C          71.0132   74.6817   15.9641 C.2     1  UNL1        0.2260
      9 N          72.3092   75.1240   15.3520 N.am    1  UNL1       -0.2839
     10 H          73.1573   74.7249   15.6531 H       1  UNL1        0.1549
     11 C          71.0093   73.6312   17.0349 C.3     1  UNL1        0.0812
     12 C          70.7042   73.2122   18.4425 C.3     1  UNL1        0.0143
     13 C          71.3077   72.2308   17.4820 C.3     1  UNL1        0.0330
     14 C          71.8285   70.8558   17.1856 C.ar    1  UNL1       -0.0029
     15 C          71.0795   69.6496   17.6696 C.ar    1  UNL1       -0.0011
     16 C          71.6003   68.2746   17.3732 C.ar    1  UNL1        0.0204
     17 C          72.8701   68.1055   16.5927 C.ar    1  UNL1        0.0989
     18 N          73.6191   69.3117   16.1087 N.ar    1  UNL1       -0.2426
     19 C          73.0982   70.6868   16.4051 C.ar    1  UNL1        0.0946
     20 S          72.3246   79.3256   11.0687 S.O2    1  UNL1        0.0275
     21 O          71.7124   80.3043   12.0265 O.2     1  UNL1       -0.1642
     22 O          72.9368   78.3469   10.1110 O.2     1  UNL1       -0.1642
     23 C          72.3285   80.3760    9.9979 C.ar    1  UNL1        0.1133
     24 C          72.2337   81.8262   10.3695 C.ar    1  UNL1        0.0190
     25 C          72.2376   82.8765    9.2987 C.ar    1  UNL1        0.0044
     26 C          72.3362   82.4768    7.8563 C.ar    1  UNL1        0.0373
     27 C          72.4310   81.0267    7.4847 C.ar    1  UNL1        0.1481
     28 C          72.4271   79.9762    8.5555 C.ar    1  UNL1        0.0559
     29 O          72.5296   80.6269    6.0423 O.3     1  UNL1       -0.4044
     30 C          71.4431   79.8039    5.4162 C.3     1  UNL1        0.5753
     31 F          70.3565   78.9809    4.7900 F       1  UNL1       -0.1328
     32 F          72.2663   78.5659    5.6148 F       1  UNL1       -0.1328
     33 F          70.6198   81.0419    5.2176 F       1  UNL1       -0.1328
@<TRIPOS>BOND
     1     7     8    2
     2     8     9   am
     3     9     1    1
     4     1     2   ar
     5     2     3   ar
     6     3     4   ar
     7     4    20    1
     8    20    21    2
     9    20    22    2
    10    20    23    1
    11    23    24   ar
    12    24    25   ar
    13    25    26   ar
    14    26    27   ar
    15    27    29    1
    16    29    30    1
    17    30    31    1
    18    30    32    1
    19    30    33    1
    20    27    28   ar
    21     4     5   ar
    22     5     6   ar
    23    11     8    1
    24    11    12    1
    25    12    13    1
    26    13    14    1
    27    14    15   ar
    28    15    16   ar
    29    16    17   ar
    30    17    18   ar
    31    18    19   ar
    32     6     1   ar
    33    13    11    1
    34    19    14   ar
    35    28    23   ar
    36     9    10    1
@<TRIPOS>MOLECULE
*****
 33 36 0 0 0
SMALL
GASTEIGER

@<TRIPOS>ATOM
      1 C          64.2639   89.3900   14.3634 C.ar    1  UNL1        0.0504
      2 C          63.3614   90.0440   13.3595 C.ar    1  UNL1        0.0160
      3 C          63.8069   91.2873   12.6485 C.ar    1  UNL1        0.0200
      4 C          65.1548   91.8767   12.9413 C.ar    1  UNL1        0.1104
      5 C          66.0573   91.2226   13.9452 C.ar    1  UNL1        0.0200
      6 C          65.6118   89.9793   14.6562 C.ar    1  UNL1        0.0160
      7 O          63.5972   86.9216   12.7941 O.2     1  UNL1       -0.2748
      8 C          63.4851   86.9125   14.2898 C.2     1  UNL1        0.2260
      9 N          63.8184   88.1466   15.0745 N.am    1  UNL1       -0.2839
     10 H          63.7448   88.1406   16.0562 H       1  UNL1        0.1549
     11 C          63.0396   85.6691   15.0010 C.3     1  UNL1        0.0812
     12 C          62.5543   84.9879   16.2461 C.3     1  UNL1        0.0143
     13 C          62.7534   84.1967   14.9874 C.3     1  UNL1        0.0330
     14 C          62.7031   82.8898   14.2529 C.ar    1  UNL1       -0.0029
     15 C          61.6238   81.8957   14.5640 C.ar    1  UNL1       -0.0011
     16 C          61.5735   80.5888   13.8295 C.ar    1  UNL1        0.0204
     17 C          62.6025   80.2761   12.7838 C.ar    1  UNL1        0.0989
     18 N          63.6819   81.2702   12.4728 N.ar    1  UNL1       -0.2426
     19 C          63.7321   82.5771   13.2074 C.ar    1  UNL1        0.0946
     20 S          65.6003   93.1201   12.2302 S.O2    1  UNL1        0.0275
     21 O          66.1416   93.6634   13.5192 O.2     1  UNL1       -0.1642
     22 O          65.0589   92.5767   10.9412 O.2     1  UNL1       -0.1642
     23 C          66.0457   94.3634   11.5191 C.ar    1  UNL1        0.1133
     24 C          66.3918   95.5935   12.3046 C.ar    1  UNL1        0.0190
     25 C          66.8372   96.8368   11.5935 C.ar    1  UNL1        0.0044
     26 C          66.9366   96.8501   10.0969 C.ar    1  UNL1        0.0373
     27 C          66.5905   95.6200    9.3113 C.ar    1  UNL1        0.1481
     28 C          66.1450   94.3766   10.0224 C.ar    1  UNL1        0.0559
     29 O          66.6898   95.6333    7.8147 O.3     1  UNL1       -0.4044
     30 C          65.5749   96.2108    6.9941 C.3     1  UNL1        0.5753
     31 F          64.4600   96.7883    6.1736 F       1  UNL1       -0.1328
     32 F          66.1448   95.5656    5.7657 F       1  UNL1       -0.1328
     33 F          65.0050   96.8560    8.2225 F       1  UNL1       -0.1328
@<TRIPOS>BOND
     1     7     8    2
     2     8     9   am
     3     9     1    1
     4     1     2   ar
     5     2     3   ar
     6     3     4   ar
     7     4    20    1
     8    20    21    2
     9    20    22    2
    10    20    23    1
    11    23    24   ar
    12    24    25   ar
    13    25    26   ar
    14    26    27   ar
    15    27    29    1
    16    29    30    1
    17    30    31    1
    18    30    32    1
    19    30    33    1
    20    27    28   ar
    21     4     5   ar
    22     5     6   ar
    23    11     8    1
    24    11    12    1
    25    12    13    1
    26    13    14    1
    27    14    15   ar
    28    15    16   ar
    29    16    17   ar
    30    17    18   ar
    31    18    19   ar
    32     6     1   ar
    33    13    11    1
    34    19    14   ar
    35    28    23   ar
    36     9    10    1
@<TRIPOS>MOLECULE
*****
 33 36 0 0 0
SMALL
GASTEIGER

@<TRIPOS>ATOM
      1 C          60.9558   91.4919    4.2425 C.ar    1  UNL1        0.0504
      2 C          62.1924   91.5012    3.3935 C.ar    1  UNL1        0.0160
      3 C          62.2496   92.3543    2.1611 C.ar    1  UNL1        0.0200
      4 C          61.0702   93.1981    1.7777 C.ar    1  UNL1        0.1104
      5 C          59.8336   93.1888    2.6267 C.ar    1  UNL1        0.0200
      6 C          59.7764   92.3357    3.8591 C.ar    1  UNL1        0.0160
      7 O          58.3238   90.4212    5.2049 O.2     1  UNL1       -0.2748
      8 C          59.5826   90.1034    5.9561 C.2     1  UNL1        0.2260
      9 N          60.8986   90.6387    5.4749 N.am    1  UNL1       -0.2839
     10 H          61.7248   90.4301    5.9680 H       1  UNL1        0.1549
     11 C          59.5254   89.2502    7.1886 C.3     1  UNL1        0.0812
     12 C          58.9961   88.0481    7.9129 C.3     1  UNL1        0.0143
     13 C          59.9557   88.9746    8.5989 C.3     1  UNL1        0.0330
     14 C          60.7581   89.3505    9.8092 C.ar    1  UNL1       -0.0029
     15 C          62.0572   90.0832    9.6498 C.ar    1  UNL1       -0.0011
     16 C          62.8596   90.4590   10.8601 C.ar    1  UNL1        0.0204
     17 C          62.3629   90.1023   12.2298 C.ar    1  UNL1        0.0989
     18 N          61.0637   89.3696   12.3892 N.ar    1  UNL1       -0.2426
     19 C          60.2613   88.9937   11.1788 C.ar    1  UNL1        0.0946
     20 S          61.1274   94.0513    0.5452 S.O2    1  UNL1        0.0275
     21 O          59.6841   94.4154    0.7302 O.2     1  UNL1       -0.1642
     22 O          62.5707   93.6872    0.3603 O.2     1  UNL1       -0.1642
     23 C          61.1846   94.9044   -0.6872 C.ar    1  UNL1        0.1133
     24 C          60.1823   96.0025   -0.8865 C.ar    1  UNL1        0.0190
     25 C          60.2395   96.8556   -2.1189 C.ar    1  UNL1        0.0044
     26 C          61.2991   96.6108   -3.1520 C.ar    1  UNL1        0.0373
     27 C          62.3014   95.5128   -2.9527 C.ar    1  UNL1        0.1481
     28 C          62.2442   94.6596   -1.7203 C.ar    1  UNL1        0.0559
     29 O          63.3610   95.2680   -3.9858 O.3     1  UNL1       -0.4044
     30 C          63.4830   93.9188   -4.6300 C.3     1  UNL1        0.5753
     31 F          63.6050   92.5697   -5.2741 F       1  UNL1       -0.1328
     32 F          61.9988   93.8872   -4.8448 F       1  UNL1       -0.1328
     33 F          64.9672   93.9505   -4.4151 F       1  UNL1       -0.1328
@<TRIPOS>BOND
     1     7     8    2
     2     8     9   am
     3     9     1    1
     4     1     2   ar
     5     2     3   ar
     6     3     4   ar
     7     4    20    1
     8    20    21    2
     9    20    22    2
    10    20    23    1
    11    23    24   ar
    12    24    25   ar
    13    25    26   ar
    14    26    27   ar
    15    27    29    1
    16    29    30    1
    17    30    31    1
    18    30    32    1
    19    30    33    1
    20    27    28   ar
    21     4     5   ar
    22     5     6   ar
    23    11     8    1
    24    11    12    1
    25    12    13    1
    26    13    14    1
    27    14    15   ar
    28    15    16   ar
    29    16    17   ar
    30    17    18   ar
    31    18    19   ar
    32     6     1   ar
    33    13    11    1
    34    19    14   ar
    35    28    23   ar
    36     9    10    1
@<TRIPOS>MOLECULE
*****
 33 36 0 0 0
SMALL
GASTEIGER

@<TRIPOS>ATOM
      1 C          60.4608   92.8495    1.9346 C.ar    1  UNL1        0.0504
      2 C          61.0742   94.1936    2.1933 C.ar    1  UNL1        0.0160
      3 C          61.9997   94.8027    1.1822 C.ar    1  UNL1        0.0200
      4 C          62.3117   94.0677   -0.0876 C.ar    1  UNL1        0.1104
      5 C          61.6983   92.7236   -0.3463 C.ar    1  UNL1        0.0200
      6 C          60.7728   92.1144    0.6648 C.ar    1  UNL1        0.0160
      7 O          61.5797   91.4364    4.3328 O.2     1  UNL1       -0.2748
      8 C          60.0947   91.5338    4.1448 C.2     1  UNL1        0.2260
      9 N          59.5352   92.2403    2.9458 N.am    1  UNL1       -0.2839
     10 H          58.5606   92.3042    2.8224 H       1  UNL1        0.1549
     11 C          59.1692   90.9246    5.1560 C.3     1  UNL1        0.0812
     12 C          57.8018   90.8087    5.7617 C.3     1  UNL1        0.0143
     13 C          58.9335   89.9854    6.3016 C.3     1  UNL1        0.0330
     14 C          59.4508   88.9678    7.2746 C.ar    1  UNL1       -0.0029
     15 C          59.2478   87.5055    7.0095 C.ar    1  UNL1       -0.0011
     16 C          59.7651   86.4879    7.9825 C.ar    1  UNL1        0.0204
     17 C          60.4854   86.9327    9.2209 C.ar    1  UNL1        0.0989
     18 N          60.6883   88.3951    9.4861 N.ar    1  UNL1       -0.2426
     19 C          60.1710   89.4126    8.5129 C.ar    1  UNL1        0.0946
     20 S          63.2373   94.6769   -1.0988 S.O2    1  UNL1        0.0275
     21 O          63.6893   95.6809   -0.0802 O.2     1  UNL1       -0.1642
     22 O          62.7853   93.6728   -2.1173 O.2     1  UNL1       -0.1642
     23 C          64.1628   95.2860   -2.1099 C.ar    1  UNL1        0.1133
     24 C          65.2275   96.2464   -1.6694 C.ar    1  UNL1        0.0190
     25 C          66.1530   96.8555   -2.6806 C.ar    1  UNL1        0.0044
     26 C          66.0138   96.5043   -4.1322 C.ar    1  UNL1        0.0373
     27 C          64.9491   95.5439   -4.5727 C.ar    1  UNL1        0.1481
     28 C          64.0236   94.9347   -3.5616 C.ar    1  UNL1        0.0559
     29 O          64.8099   95.1926   -6.0243 O.3     1  UNL1       -0.4044
     30 C          64.0925   93.9384   -6.4270 C.3     1  UNL1        0.5753
     31 F          63.3752   92.6842   -6.8297 F       1  UNL1       -0.1328
     32 F          65.3864   93.1815   -6.3744 F       1  UNL1       -0.1328
     33 F          62.7987   94.6953   -6.4797 F       1  UNL1       -0.1328
@<TRIPOS>BOND
     1     7     8    2
     2     8     9   am
     3     9     1    1
     4     1     2   ar
     5     2     3   ar
     6     3     4   ar
     7     4    20    1
     8    20    21    2
     9    20    22    2
    10    20    23    1
    11    23    24   ar
    12    24    25   ar
    13    25    26   ar
    14    26    27   ar
    15    27    29    1
    16    29    30    1
    17    30    31    1
    18    30    32    1
    19    30    33    1
    20    27    28   ar
    21     4     5   ar
    22     5     6   ar
    23    11     8    1
    24    11    12    1
    25    12    13    1
    26    13    14    1
    27    14    15   ar
    28    15    16   ar
    29    16    17   ar
    30    17    18   ar
    31    18    19   ar
    32     6     1   ar
    33    13    11    1
    34    19    14   ar
    35    28    23   ar
    36     9    10    1
@<TRIPOS>MOLECULE
*****
 33 36 0 0 0
SMALL
GASTEIGER

@<TRIPOS>ATOM
      1 C          60.9221   91.5294    4.2503 C.ar    1  UNL1        0.0504
      2 C          59.7335   92.3677    3.8839 C.ar    1  UNL1        0.0160
      3 C          59.7823   93.2487    2.6709 C.ar    1  UNL1        0.0200
      4 C          61.0198   93.2915    1.8243 C.ar    1  UNL1        0.1104
      5 C          62.2085   92.4532    2.1907 C.ar    1  UNL1        0.0200
      6 C          62.1596   91.5722    3.4037 C.ar    1  UNL1        0.0160
      7 O          58.2960   90.4415    5.2094 O.2     1  UNL1       -0.2748
      8 C          59.5603   90.1044    5.9429 C.2     1  UNL1        0.2260
      9 N          60.8733   90.6483    5.4633 N.am    1  UNL1       -0.2839
     10 H          61.7031   90.4270    5.9447 H       1  UNL1        0.1549
     11 C          59.5115   89.2233    7.1559 C.3     1  UNL1        0.0812
     12 C          59.0063   87.9919    7.8475 C.3     1  UNL1        0.0143
     13 C          59.9321   88.9287    8.5652 C.3     1  UNL1        0.0330
     14 C          60.7094   89.2995    9.7933 C.ar    1  UNL1       -0.0029
     15 C          62.1327   89.7569    9.6704 C.ar    1  UNL1       -0.0011
     16 C          62.9100   90.1277   10.8984 C.ar    1  UNL1        0.0204
     17 C          62.2641   90.0411   12.2495 C.ar    1  UNL1        0.0989
     18 N          60.8409   89.5837   12.3725 N.ar    1  UNL1       -0.2426
     19 C          60.0635   89.2128   11.1443 C.ar    1  UNL1        0.0946
     20 S          61.0686   94.1726    0.6113 S.O2    1  UNL1        0.0275
     21 O          59.7844   94.8233    1.0322 O.2     1  UNL1       -0.1642
     22 O          62.3529   93.5219    0.1904 O.2     1  UNL1       -0.1642
     23 C          61.1175   95.0536   -0.6017 C.ar    1  UNL1        0.1133
     24 C          62.2832   95.9735   -0.8141 C.ar    1  UNL1        0.0190
     25 C          62.3320   96.8545   -2.0271 C.ar    1  UNL1        0.0044
     26 C          61.2152   96.8157   -3.0277 C.ar    1  UNL1        0.0373
     27 C          60.0495   95.8959   -2.8153 C.ar    1  UNL1        0.1481
     28 C          60.0007   95.0148   -1.6023 C.ar    1  UNL1        0.0559
     29 O          58.9327   95.8571   -3.8159 O.3     1  UNL1       -0.4044
     30 C          58.1090   94.6134   -3.9727 C.3     1  UNL1        0.5753
     31 F          57.2853   93.3697   -4.1294 F       1  UNL1       -0.1328
     32 F          59.2568   93.9405   -4.6653 F       1  UNL1       -0.1328
     33 F          56.9612   95.2863   -3.2801 F       1  UNL1       -0.1328
@<TRIPOS>BOND
     1     7     8    2
     2     8     9   am
     3     9     1    1
     4     1     2   ar
     5     2     3   ar
     6     3     4   ar
     7     4    20    1
     8    20    21    2
     9    20    22    2
    10    20    23    1
    11    23    24   ar
    12    24    25   ar
    13    25    26   ar
    14    26    27   ar
    15    27    29    1
    16    29    30    1
    17    30    31    1
    18    30    32    1
    19    30    33    1
    20    27    28   ar
    21     4     5   ar
    22     5     6   ar
    23    11     8    1
    24    11    12    1
    25    12    13    1
    26    13    14    1
    27    14    15   ar
    28    15    16   ar
    29    16    17   ar
    30    17    18   ar
    31    18    19   ar
    32     6     1   ar
    33    13    11    1
    34    19    14   ar
    35    28    23   ar
    36     9    10    1
