@<TRIPOS>MOLECULE
*****
 29 32 0 0 0
SMALL
GASTEIGER

@<TRIPOS>ATOM
      1 C          62.5461   90.4007   11.3591 C.3     1  UNL1        0.0844
      2 C          63.0021   91.0721   10.0976 C.3     1  UNL1        0.0243
      3 C          64.1651   92.0188   10.1301 C.3     1  UNL1        0.0450
      4 C          64.8720   92.2943   11.4241 C.ar    1  UNL1        0.0364
      5 C          64.4160   91.6230   12.6856 C.ar    1  UNL1        0.0115
      6 C          65.3018   92.0867   13.8038 C.ar    1  UNL1        0.1125
      7 N          65.3243   91.7604   15.2677 N.ar    1  UNL1       -0.2395
      8 C          66.3503   92.3920   16.1611 C.ar    1  UNL1        0.1196
      9 C          67.3538   93.3499   15.5907 C.ar    1  UNL1        0.1212
     10 N          67.3314   93.6762   14.1268 N.ar    1  UNL1       -0.2236
     11 C          66.3054   93.0446   13.2334 C.ar    1  UNL1        0.1614
     12 N          66.0397   93.1729   11.7627 N.ar    1  UNL1       -0.3101
     13 C          63.2531   90.6762   12.6531 C.3     1  UNL1        0.0468
     14 C          60.2750   89.5926   12.3281 C.3     1  UNL1        0.1149
     15 N          61.3831   89.4539   11.3266 N.3     1  UNL1       -0.1551
     16 S          61.3283   88.3684   10.2928 S.O2    1  UNL1        0.0633
     17 O          60.2477   89.1140    9.5673 O.2     1  UNL1       -0.1528
     18 O          62.4090   87.6229   11.0184 O.2     1  UNL1       -0.1528
     19 C          61.2735   87.2830    9.2591 C.ar    1  UNL1        0.1223
     20 C          62.4833   86.4362    8.9958 C.ar    1  UNL1        0.0222
     21 C          62.4285   85.3508    7.9620 C.ar    1  UNL1        0.0310
     22 C          61.1639   85.1120    7.1914 C.ar    1  UNL1        0.1402
     23 F          61.1091   84.0265    6.1576 F       1  UNL1       -0.2042
     24 C          59.9541   85.9589    7.4547 C.ar    1  UNL1        0.0310
     25 C          60.0089   87.0443    8.4885 C.ar    1  UNL1        0.0222
     26 C          66.8071   94.0295   10.7996 C.3     1  UNL1        0.1488
     27 C          67.5649   93.3953    9.6712 C.2     1  UNL1        0.0732
     28 O          68.2099   92.0543    9.8609 O.co2   1  UNL1       -0.5472
     29 O          67.6778   94.1020    8.3529 O.co2   1  UNL1       -0.5472
@<TRIPOS>UNITY_ATOM_ATTR
28 1
charge -1
@<TRIPOS>BOND
     1    14    15    1
     2     1    15    1
     3     1     2    1
     4     2     3    1
     5     3     4    1
     6     4     5   ar
     7     5     6   ar
     8     6     7   ar
     9     7     8   ar
    10     8     9   ar
    11     9    10   ar
    12    10    11   ar
    13    11    12   ar
    14    12    26    1
    15    26    27    1
    16    27    28   ar
    17    27    29   ar
    18     5    13    1
    19    15    16    1
    20    16    17    2
    21    16    18    2
    22    16    19    1
    23    19    20   ar
    24    20    21   ar
    25    21    22   ar
    26    22    23    1
    27    22    24   ar
    28    24    25   ar
    29    13     1    1
    30    25    19   ar
    31    12     4   ar
    32    11     6   ar
@<TRIPOS>MOLECULE
*****
 29 32 0 0 0
SMALL
GASTEIGER

@<TRIPOS>ATOM
      1 C          62.4927   89.6771   11.3483 C.3     1  UNL1        0.0844
      2 C          62.6481   90.4453   10.0693 C.3     1  UNL1        0.0243
      3 C          63.6077   91.5959    9.9974 C.3     1  UNL1        0.0450
      4 C          64.4119   91.9783   11.2045 C.ar    1  UNL1        0.0364
      5 C          64.2565   91.2102   12.4834 C.ar    1  UNL1        0.0115
      6 C          65.1770   91.8146   13.5020 C.ar    1  UNL1        0.1125
      7 N          65.4492   91.4728   14.9369 N.ar    1  UNL1       -0.2395
      8 C          66.4458   92.2728   15.7223 C.ar    1  UNL1        0.1196
      9 C          67.1701   93.4145   15.0728 C.ar    1  UNL1        0.1212
     10 N          66.8979   93.7562   13.6379 N.ar    1  UNL1       -0.2236
     11 C          65.9013   92.9563   12.8525 C.ar    1  UNL1        0.1614
     12 N          65.4285   93.0575   11.4326 N.ar    1  UNL1       -0.3101
     13 C          63.2969   90.0596   12.5553 C.3     1  UNL1        0.0468
     14 C          60.0869   88.7744   11.7326 C.3     1  UNL1        0.1149
     15 N          61.5330   88.5265   11.4202 N.3     1  UNL1       -0.1551
     16 S          62.0194   87.1280   11.1799 S.O2    1  UNL1        0.0633
     17 O          61.0986   87.0103   10.0016 O.2     1  UNL1       -0.1528
     18 O          62.9401   87.2458   12.3582 O.2     1  UNL1       -0.1528
     19 C          62.5058   85.7297   10.9396 C.ar    1  UNL1        0.1223
     20 C          62.9165   85.3050    9.5608 C.ar    1  UNL1        0.0222
     21 C          63.4029   83.9065    9.3206 C.ar    1  UNL1        0.0310
     22 C          63.4787   82.9327   10.4590 C.ar    1  UNL1        0.1402
     23 F          63.9651   81.5343   10.2188 F       1  UNL1       -0.2042
     24 C          63.0679   83.3575   11.8378 C.ar    1  UNL1        0.0310
     25 C          62.5815   84.7559   12.0780 C.ar    1  UNL1        0.0222
     26 C          65.8910   94.0616   10.4187 C.3     1  UNL1        0.1488
     27 C          67.1724   93.8377    9.6719 C.2     1  UNL1        0.0732
     28 O          67.4232   94.5577    8.3800 O.co2   1  UNL1       -0.5472
     29 O          68.2031   92.8939   10.2167 O.co2   1  UNL1       -0.5472
@<TRIPOS>UNITY_ATOM_ATTR
28 1
charge -1
@<TRIPOS>BOND
     1    14    15    1
     2     1    15    1
     3     1     2    1
     4     2     3    1
     5     3     4    1
     6     4     5   ar
     7     5     6   ar
     8     6     7   ar
     9     7     8   ar
    10     8     9   ar
    11     9    10   ar
    12    10    11   ar
    13    11    12   ar
    14    12    26    1
    15    26    27    1
    16    27    28   ar
    17    27    29   ar
    18     5    13    1
    19    15    16    1
    20    16    17    2
    21    16    18    2
    22    16    19    1
    23    19    20   ar
    24    20    21   ar
    25    21    22   ar
    26    22    23    1
    27    22    24   ar
    28    24    25   ar
    29    13     1    1
    30    25    19   ar
    31    12     4   ar
    32    11     6   ar
@<TRIPOS>MOLECULE
*****
 29 32 0 0 0
SMALL
GASTEIGER

@<TRIPOS>ATOM
      1 C          62.2021   89.7396   12.2248 C.3     1  UNL1        0.0844
      2 C          62.7648   89.3003   13.5440 C.3     1  UNL1        0.0243
      3 C          64.0121   89.9400   14.0778 C.3     1  UNL1        0.0450
      4 C          64.6969   91.0189   13.2922 C.ar    1  UNL1        0.0364
      5 C          64.1342   91.4582   11.9730 C.ar    1  UNL1        0.0115
      6 C          65.0213   92.5377   11.4271 C.ar    1  UNL1        0.1125
      7 N          64.9609   93.3425   10.1627 N.ar    1  UNL1       -0.2395
      8 C          66.0115   94.3752    9.8803 C.ar    1  UNL1        0.1196
      9 C          67.1224   94.6030   10.8622 C.ar    1  UNL1        0.1212
     10 N          67.1827   93.7982   12.1265 N.ar    1  UNL1       -0.2236
     11 C          66.1321   92.7655   12.4089 C.ar    1  UNL1        0.1614
     12 N          65.9316   91.8269   13.5616 N.ar    1  UNL1       -0.3101
     13 C          62.8869   90.8186   11.4393 C.3     1  UNL1        0.0468
     14 C          59.6209   89.4500   12.2812 C.3     1  UNL1        0.1149
     15 N          60.9547   89.1000   11.6910 N.3     1  UNL1       -0.1551
     16 S          61.0412   88.1104   10.5670 S.O2    1  UNL1        0.0633
     17 O          60.7189   89.1975    9.5851 O.2     1  UNL1       -0.1528
     18 O          61.3635   87.0233   11.5491 O.2     1  UNL1       -0.1528
     19 C          61.1277   87.1208    9.4432 C.ar    1  UNL1        0.1223
     20 C          62.4057   86.3750    9.1973 C.ar    1  UNL1        0.0222
     21 C          62.4921   85.3853    8.0734 C.ar    1  UNL1        0.0310
     22 C          61.3006   85.1415    7.1954 C.ar    1  UNL1        0.1402
     23 F          61.3871   84.1518    6.0715 F       1  UNL1       -0.2042
     24 C          60.0226   85.8873    7.4413 C.ar    1  UNL1        0.0310
     25 C          59.9362   86.8770    8.5652 C.ar    1  UNL1        0.0222
     26 C          66.8115   91.7157   14.7714 C.3     1  UNL1        0.1488
     27 C          66.6869   92.7142   15.8837 C.2     1  UNL1        0.0732
     28 O          67.7326   93.7751   16.0599 O.co2   1  UNL1       -0.5472
     29 O          65.5166   92.6519   16.8200 O.co2   1  UNL1       -0.5472
@<TRIPOS>UNITY_ATOM_ATTR
28 1
charge -1
@<TRIPOS>BOND
     1    14    15    1
     2     1    15    1
     3     1     2    1
     4     2     3    1
     5     3     4    1
     6     4     5   ar
     7     5     6   ar
     8     6     7   ar
     9     7     8   ar
    10     8     9   ar
    11     9    10   ar
    12    10    11   ar
    13    11    12   ar
    14    12    26    1
    15    26    27    1
    16    27    28   ar
    17    27    29   ar
    18     5    13    1
    19    15    16    1
    20    16    17    2
    21    16    18    2
    22    16    19    1
    23    19    20   ar
    24    20    21   ar
    25    21    22   ar
    26    22    23    1
    27    22    24   ar
    28    24    25   ar
    29    13     1    1
    30    25    19   ar
    31    12     4   ar
    32    11     6   ar
@<TRIPOS>MOLECULE
*****
 29 32 0 0 0
SMALL
GASTEIGER

@<TRIPOS>ATOM
      1 C          62.8128   89.5535   12.2262 C.3     1  UNL1        0.0844
      2 C          63.2380   89.4073   13.6572 C.3     1  UNL1        0.0243
      3 C          64.2350   90.3617   14.2446 C.3     1  UNL1        0.0450
      4 C          64.8069   91.4623   13.4009 C.ar    1  UNL1        0.0364
      5 C          64.3818   91.6084   11.9698 C.ar    1  UNL1        0.0115
      6 C          65.1119   92.7819   11.3868 C.ar    1  UNL1        0.1125
      7 N          65.0919   93.3979   10.0193 N.ar    1  UNL1       -0.2395
      8 C          65.9483   94.5931    9.7226 C.ar    1  UNL1        0.1196
      9 C          66.8247   95.1722   10.7933 C.ar    1  UNL1        0.1212
     10 N          66.8447   94.5562   12.1608 N.ar    1  UNL1       -0.2236
     11 C          65.9883   93.3611   12.4576 C.ar    1  UNL1        0.1614
     12 N          65.7998   92.5455   13.7023 N.ar    1  UNL1       -0.3101
     13 C          63.3847   90.6540   11.3825 C.3     1  UNL1        0.0468
     14 C          60.4182   89.0596   11.3477 C.3     1  UNL1        0.1149
     15 N          61.8157   88.5990   11.6388 N.3     1  UNL1       -0.1551
     16 S          62.2163   87.1842   11.3426 S.O2    1  UNL1        0.0633
     17 O          63.1832   87.2179   12.4888 O.2     1  UNL1       -0.1528
     18 O          61.2493   87.1505   10.1963 O.2     1  UNL1       -0.1528
     19 C          62.6167   85.7694   11.0463 C.ar    1  UNL1        0.1223
     20 C          62.6959   84.7641   12.1567 C.ar    1  UNL1        0.0222
     21 C          63.0963   83.3492   11.8604 C.ar    1  UNL1        0.0310
     22 C          63.4176   82.9396   10.4536 C.ar    1  UNL1        0.1402
     23 F          63.8181   81.5248   10.1572 F       1  UNL1       -0.2042
     24 C          63.3385   83.9450    9.3431 C.ar    1  UNL1        0.0310
     25 C          62.9380   85.3598    9.6395 C.ar    1  UNL1        0.0222
     26 C          66.4841   92.7732   15.0176 C.3     1  UNL1        0.1488
     27 C          67.9443   92.4644   15.1667 C.2     1  UNL1        0.0732
     28 O          68.5353   92.2757   16.5324 O.co2   1  UNL1       -0.5472
     29 O          68.8136   92.3443   13.9502 O.co2   1  UNL1       -0.5472
@<TRIPOS>UNITY_ATOM_ATTR
28 1
charge -1
@<TRIPOS>BOND
     1    14    15    1
     2     1    15    1
     3     1     2    1
     4     2     3    1
     5     3     4    1
     6     4     5   ar
     7     5     6   ar
     8     6     7   ar
     9     7     8   ar
    10     8     9   ar
    11     9    10   ar
    12    10    11   ar
    13    11    12   ar
    14    12    26    1
    15    26    27    1
    16    27    28   ar
    17    27    29   ar
    18     5    13    1
    19    15    16    1
    20    16    17    2
    21    16    18    2
    22    16    19    1
    23    19    20   ar
    24    20    21   ar
    25    21    22   ar
    26    22    23    1
    27    22    24   ar
    28    24    25   ar
    29    13     1    1
    30    25    19   ar
    31    12     4   ar
    32    11     6   ar
@<TRIPOS>MOLECULE
*****
 29 32 0 0 0
SMALL
GASTEIGER

@<TRIPOS>ATOM
      1 C          64.4929   89.9207   13.7396 C.3     1  UNL1        0.0844
      2 C          64.8088   88.7543   14.6283 C.3     1  UNL1        0.0243
      3 C          64.2766   87.3920   14.2952 C.3     1  UNL1        0.0450
      4 C          63.4287   87.1961   13.0734 C.ar    1  UNL1        0.0364
      5 C          63.1128   88.3625   12.1848 C.ar    1  UNL1        0.0115
      6 C          62.2574   87.8674   11.0564 C.ar    1  UNL1        0.1125
      7 N          61.6449   88.5671    9.8795 N.ar    1  UNL1       -0.2395
      8 C          60.8194   87.7944    8.8939 C.ar    1  UNL1        0.1196
      9 C          60.6066   86.3219    9.0852 C.ar    1  UNL1        0.1212
     10 N          61.2192   85.6222   10.2621 N.ar    1  UNL1       -0.2236
     11 C          62.0446   86.3950   11.2477 C.ar    1  UNL1        0.1614
     12 N          62.7684   85.9801   12.4943 N.ar    1  UNL1       -0.3101
     13 C          63.6450   89.7248   12.5179 C.3     1  UNL1        0.0468
     14 C          64.9697   91.7851   15.4851 C.3     1  UNL1        0.1149
     15 N          65.0251   91.2831   14.0727 N.3     1  UNL1       -0.1551
     16 S          65.6125   92.1433   12.9934 S.O2    1  UNL1        0.0633
     17 O          66.9885   91.8693   13.5239 O.2     1  UNL1       -0.1528
     18 O          64.2364   92.4173   12.4629 O.2     1  UNL1       -0.1528
     19 C          66.1998   93.0035   11.9141 C.ar    1  UNL1        0.1223
     20 C          66.0844   94.4966   11.9990 C.ar    1  UNL1        0.0222
     21 C          66.6718   95.3568   10.9196 C.ar    1  UNL1        0.0310
     22 C          67.3746   94.7240    9.7553 C.ar    1  UNL1        0.1402
     23 F          67.9619   95.5841    8.6759 F       1  UNL1       -0.2042
     24 C          67.4900   93.2307    9.6704 C.ar    1  UNL1        0.0310
     25 C          66.9026   92.3706   10.7498 C.ar    1  UNL1        0.0222
     26 C          62.8226   84.5928   13.0620 C.3     1  UNL1        0.1488
     27 C          62.8787   84.3918   14.5474 C.2     1  UNL1        0.0732
     28 O          61.7280   84.8247   15.4068 O.co2   1  UNL1       -0.5472
     29 O          64.0855   83.7581   15.1735 O.co2   1  UNL1       -0.5472
@<TRIPOS>UNITY_ATOM_ATTR
28 1
charge -1
@<TRIPOS>BOND
     1    14    15    1
     2     1    15    1
     3     1     2    1
     4     2     3    1
     5     3     4    1
     6     4     5   ar
     7     5     6   ar
     8     6     7   ar
     9     7     8   ar
    10     8     9   ar
    11     9    10   ar
    12    10    11   ar
    13    11    12   ar
    14    12    26    1
    15    26    27    1
    16    27    28   ar
    17    27    29   ar
    18     5    13    1
    19    15    16    1
    20    16    17    2
    21    16    18    2
    22    16    19    1
    23    19    20   ar
    24    20    21   ar
    25    21    22   ar
    26    22    23    1
    27    22    24   ar
    28    24    25   ar
    29    13     1    1
    30    25    19   ar
    31    12     4   ar
    32    11     6   ar
@<TRIPOS>MOLECULE
*****
 29 32 0 0 0
SMALL
GASTEIGER

@<TRIPOS>ATOM
      1 C          63.3358   85.8605   12.9768 C.3     1  UNL1        0.0844
      2 C          63.8510   87.1796   13.4713 C.3     1  UNL1        0.0243
      3 C          63.4466   88.4488   12.7818 C.3     1  UNL1        0.0450
      4 C          62.5269   88.3990   11.5979 C.ar    1  UNL1        0.0364
      5 C          62.0116   87.0799   11.1034 C.ar    1  UNL1        0.0115
      6 C          61.1253   87.3418    9.9219 C.ar    1  UNL1        0.1125
      7 N          60.3437   86.4231    9.0303 N.ar    1  UNL1       -0.2395
      8 C          59.5296   86.9854    7.9030 C.ar    1  UNL1        0.1196
      9 C          59.4971   88.4664    7.6673 C.ar    1  UNL1        0.1212
     10 N          60.2787   89.3851    8.5588 N.ar    1  UNL1       -0.2236
     11 C          61.0929   88.8228    9.6862 C.ar    1  UNL1        0.1614
     12 N          61.9591   89.4762   10.7220 N.ar    1  UNL1       -0.3101
     13 C          62.4161   85.8107   11.7929 C.3     1  UNL1        0.0468
     14 C          64.3975   84.6461   15.0136 C.3     1  UNL1        0.1149
     15 N          63.7402   84.5911   13.6663 N.3     1  UNL1       -0.1551
     16 S          63.4873   83.2670   13.0086 S.O2    1  UNL1        0.0633
     17 O          62.3293   83.0295   13.9319 O.2     1  UNL1       -0.1528
     18 O          64.6454   83.5045   12.0853 O.2     1  UNL1       -0.1528
     19 C          63.2345   81.9429   12.3509 C.ar    1  UNL1        0.1223
     20 C          63.4149   81.7949   10.8691 C.ar    1  UNL1        0.0222
     21 C          63.1621   80.4707   10.2114 C.ar    1  UNL1        0.0310
     22 C          62.7289   79.2944   11.0353 C.ar    1  UNL1        0.1402
     23 F          62.4761   77.9703   10.3776 F       1  UNL1       -0.2042
     24 C          62.5485   79.4425   12.5171 C.ar    1  UNL1        0.0310
     25 C          62.8013   80.7667   13.1749 C.ar    1  UNL1        0.0222
     26 C          62.2129   90.9483   10.8580 C.3     1  UNL1        0.1488
     27 C          63.5149   91.4361   11.4206 C.2     1  UNL1        0.0732
     28 O          63.6835   91.5814   12.9040 O.co2   1  UNL1       -0.5472
     29 O          64.6485   91.7786   10.4999 O.co2   1  UNL1       -0.5472
@<TRIPOS>UNITY_ATOM_ATTR
28 1
charge -1
@<TRIPOS>BOND
     1    14    15    1
     2     1    15    1
     3     1     2    1
     4     2     3    1
     5     3     4    1
     6     4     5   ar
     7     5     6   ar
     8     6     7   ar
     9     7     8   ar
    10     8     9   ar
    11     9    10   ar
    12    10    11   ar
    13    11    12   ar
    14    12    26    1
    15    26    27    1
    16    27    28   ar
    17    27    29   ar
    18     5    13    1
    19    15    16    1
    20    16    17    2
    21    16    18    2
    22    16    19    1
    23    19    20   ar
    24    20    21   ar
    25    21    22   ar
    26    22    23    1
    27    22    24   ar
    28    24    25   ar
    29    13     1    1
    30    25    19   ar
    31    12     4   ar
    32    11     6   ar
@<TRIPOS>MOLECULE
*****
 29 32 0 0 0
SMALL
GASTEIGER

@<TRIPOS>ATOM
      1 C          63.6304   88.7783   12.8216 C.3     1  UNL1        0.0844
      2 C          64.1388   88.7169   14.2314 C.3     1  UNL1        0.0243
      3 C          64.9386   89.8560   14.7906 C.3     1  UNL1        0.0450
      4 C          65.2300   91.0566   13.9399 C.ar    1  UNL1        0.0364
      5 C          64.7216   91.1180   12.5300 C.ar    1  UNL1        0.0115
      6 C          65.1637   92.4217   11.9342 C.ar    1  UNL1        0.1125
      7 N          64.9555   93.0272   10.5777 N.ar    1  UNL1       -0.2395
      8 C          65.5289   94.3771   10.2630 C.ar    1  UNL1        0.1196
      9 C          66.3105   95.1214   11.3046 C.ar    1  UNL1        0.1212
     10 N          66.5187   94.5159   12.6611 N.ar    1  UNL1       -0.2236
     11 C          65.9453   93.1661   12.9758 C.ar    1  UNL1        0.1614
     12 N          65.9862   92.3224   14.2154 N.ar    1  UNL1       -0.3101
     13 C          63.9218   89.9789   11.9708 C.3     1  UNL1        0.0468
     14 C          62.9222   86.2795   12.8894 C.3     1  UNL1        0.1149
     15 N          62.8306   87.6391   12.2624 N.3     1  UNL1       -0.1551
     16 S          61.9393   87.8596   11.0762 S.O2    1  UNL1        0.0633
     17 O          62.8231   86.9750   10.2477 O.2     1  UNL1       -0.1528
     18 O          61.0555   88.7442   11.9048 O.2     1  UNL1       -0.1528
     19 C          61.0479   88.0801    9.8902 C.ar    1  UNL1        0.1223
     20 C          60.3260   86.9214    9.2687 C.ar    1  UNL1        0.0222
     21 C          59.4347   87.1420    8.0826 C.ar    1  UNL1        0.0310
     22 C          59.2652   88.5212    7.5179 C.ar    1  UNL1        0.1402
     23 F          58.3738   88.7418    6.3318 F       1  UNL1       -0.2042
     24 C          59.9871   89.6800    8.1394 C.ar    1  UNL1        0.0310
     25 C          60.8785   89.4594    9.3255 C.ar    1  UNL1        0.0222
     26 C          66.6644   92.6814   15.5043 C.3     1  UNL1        0.1488
     27 C          68.0614   93.2273   15.4900 C.2     1  UNL1        0.0732
     28 O          68.4281   94.3732   16.3860 O.co2   1  UNL1       -0.5472
     29 O          69.0919   92.6276   14.5798 O.co2   1  UNL1       -0.5472
@<TRIPOS>UNITY_ATOM_ATTR
28 1
charge -1
@<TRIPOS>BOND
     1    14    15    1
     2     1    15    1
     3     1     2    1
     4     2     3    1
     5     3     4    1
     6     4     5   ar
     7     5     6   ar
     8     6     7   ar
     9     7     8   ar
    10     8     9   ar
    11     9    10   ar
    12    10    11   ar
    13    11    12   ar
    14    12    26    1
    15    26    27    1
    16    27    28   ar
    17    27    29   ar
    18     5    13    1
    19    15    16    1
    20    16    17    2
    21    16    18    2
    22    16    19    1
    23    19    20   ar
    24    20    21   ar
    25    21    22   ar
    26    22    23    1
    27    22    24   ar
    28    24    25   ar
    29    13     1    1
    30    25    19   ar
    31    12     4   ar
    32    11     6   ar
@<TRIPOS>MOLECULE
*****
 29 32 0 0 0
SMALL
GASTEIGER

@<TRIPOS>ATOM
      1 C          63.7654   85.8874   13.7452 C.3     1  UNL1        0.0844
      2 C          64.3790   87.0949   14.3898 C.3     1  UNL1        0.0243
      3 C          64.1150   88.4605   13.8283 C.3     1  UNL1        0.0450
      4 C          63.2373   88.6186   12.6222 C.ar    1  UNL1        0.0364
      5 C          62.6237   87.4112   11.9776 C.ar    1  UNL1        0.0115
      6 C          61.8071   87.8747   10.8079 C.ar    1  UNL1        0.1125
      7 N          60.9784   87.1295    9.8040 N.ar    1  UNL1       -0.2395
      8 C          60.2587   87.8782    8.7217 C.ar    1  UNL1        0.1196
      9 C          60.3677   89.3722    8.6433 C.ar    1  UNL1        0.1212
     10 N          61.1963   90.1174    9.6472 N.ar    1  UNL1       -0.2236
     11 C          61.9160   89.3687   10.7295 C.ar    1  UNL1        0.1614
     12 N          62.7999   89.8285   11.8508 N.ar    1  UNL1       -0.3101
     13 C          62.8877   86.0456   12.5391 C.3     1  UNL1        0.0468
     14 C          64.6106   84.3758   15.6819 C.3     1  UNL1        0.1149
     15 N          64.0295   84.5217   14.3068 N.3     1  UNL1       -0.1551
     16 S          63.7125   83.3021   13.4931 S.O2    1  UNL1        0.0633
     17 O          64.8926   83.5838   12.6111 O.2     1  UNL1       -0.1528
     18 O          62.5324   83.0204   14.3752 O.2     1  UNL1       -0.1528
     19 C          63.3954   82.0825   12.6795 C.ar    1  UNL1        0.1223
     20 C          62.9109   80.8346   13.3562 C.ar    1  UNL1        0.0222
     21 C          62.5938   79.6150   12.5426 C.ar    1  UNL1        0.0310
     22 C          62.7613   79.6432   11.0522 C.ar    1  UNL1        0.1402
     23 F          62.4442   78.4236   10.2385 F       1  UNL1       -0.2042
     24 C          63.2459   80.8912   10.3755 C.ar    1  UNL1        0.0310
     25 C          63.5629   82.1108   11.1892 C.ar    1  UNL1        0.0222
     26 C          63.1798   91.2487   12.1485 C.3     1  UNL1        0.1488
     27 C          64.6033   91.6936   11.9889 C.2     1  UNL1        0.0732
     28 O          65.5252   91.6972   13.1722 O.co2   1  UNL1       -0.5472
     29 O          65.1051   92.1349   10.6460 O.co2   1  UNL1       -0.5472
@<TRIPOS>UNITY_ATOM_ATTR
28 1
charge -1
@<TRIPOS>BOND
     1    14    15    1
     2     1    15    1
     3     1     2    1
     4     2     3    1
     5     3     4    1
     6     4     5   ar
     7     5     6   ar
     8     6     7   ar
     9     7     8   ar
    10     8     9   ar
    11     9    10   ar
    12    10    11   ar
    13    11    12   ar
    14    12    26    1
    15    26    27    1
    16    27    28   ar
    17    27    29   ar
    18     5    13    1
    19    15    16    1
    20    16    17    2
    21    16    18    2
    22    16    19    1
    23    19    20   ar
    24    20    21   ar
    25    21    22   ar
    26    22    23    1
    27    22    24   ar
    28    24    25   ar
    29    13     1    1
    30    25    19   ar
    31    12     4   ar
    32    11     6   ar
@<TRIPOS>MOLECULE
*****
 29 32 0 0 0
SMALL
GASTEIGER

@<TRIPOS>ATOM
      1 C          64.0546   89.8044   13.1471 C.3     1  UNL1        0.0844
      2 C          63.2232   89.8639   11.9000 C.3     1  UNL1        0.0243
      3 C          62.6023   88.6131   11.3522 C.3     1  UNL1        0.0450
      4 C          62.8129   87.3029   12.0515 C.ar    1  UNL1        0.0364
      5 C          63.6443   87.2434   13.2986 C.ar    1  UNL1        0.0115
      6 C          63.6759   85.8188   13.7672 C.ar    1  UNL1        0.1125
      7 N          64.3391   85.1631   14.9420 N.ar    1  UNL1       -0.2395
      8 C          64.1904   83.6864   15.1593 C.ar    1  UNL1        0.1196
      9 C          63.3785   82.8654   14.2018 C.ar    1  UNL1        0.1212
     10 N          62.7153   83.5211   13.0270 N.ar    1  UNL1       -0.2236
     11 C          62.8640   84.9978   12.8097 C.ar    1  UNL1        0.1614
     12 N          62.3306   85.9150   11.7494 N.ar    1  UNL1       -0.3101
     13 C          64.2652   88.4941   13.8464 C.3     1  UNL1        0.0468
     14 C          64.6551   91.3179   15.1716 C.3     1  UNL1        0.1149
     15 N          64.6756   91.0552   13.6949 N.3     1  UNL1       -0.1551
     16 S          65.3169   92.0431   12.7661 S.O2    1  UNL1        0.0633
     17 O          66.6640   91.6961   13.3271 O.2     1  UNL1       -0.1528
     18 O          63.9696   92.3901   12.2051 O.2     1  UNL1       -0.1528
     19 C          65.9581   93.0310   11.8373 C.ar    1  UNL1        0.1223
     20 C          65.9656   94.4904   12.1836 C.ar    1  UNL1        0.0222
     21 C          66.6069   95.4783   11.2547 C.ar    1  UNL1        0.0310
     22 C          67.2406   95.0069    9.9794 C.ar    1  UNL1        0.1402
     23 F          67.8818   95.9948    9.0505 F       1  UNL1       -0.2042
     24 C          67.2330   93.5473    9.6332 C.ar    1  UNL1        0.0310
     25 C          66.5917   92.5595   10.5621 C.ar    1  UNL1        0.0222
     26 C          61.4667   85.5146   10.5904 C.3     1  UNL1        0.1488
     27 C          61.7783   86.0197    9.2129 C.2     1  UNL1        0.0732
     28 O          62.9823   85.5061    8.4802 O.co2   1  UNL1       -0.5472
     29 O          60.8861   87.0385    8.5678 O.co2   1  UNL1       -0.5472
@<TRIPOS>UNITY_ATOM_ATTR
28 1
charge -1
@<TRIPOS>BOND
     1    14    15    1
     2     1    15    1
     3     1     2    1
     4     2     3    1
     5     3     4    1
     6     4     5   ar
     7     5     6   ar
     8     6     7   ar
     9     7     8   ar
    10     8     9   ar
    11     9    10   ar
    12    10    11   ar
    13    11    12   ar
    14    12    26    1
    15    26    27    1
    16    27    28   ar
    17    27    29   ar
    18     5    13    1
    19    15    16    1
    20    16    17    2
    21    16    18    2
    22    16    19    1
    23    19    20   ar
    24    20    21   ar
    25    21    22   ar
    26    22    23    1
    27    22    24   ar
    28    24    25   ar
    29    13     1    1
    30    25    19   ar
    31    12     4   ar
    32    11     6   ar
