@<TRIPOS>MOLECULE
*****
 35 38 0 0 0
SMALL
GASTEIGER

@<TRIPOS>ATOM
      1 C          61.1000   88.3510    9.3107 C.ar    1  UNL1       -0.0024
      2 C          59.7685   88.8445    8.8275 C.ar    1  UNL1       -0.0003
      3 C          58.8465   87.9170    8.0928 C.ar    1  UNL1       -0.0000
      4 C          59.2561   86.4961    7.8413 C.ar    1  UNL1       -0.0003
      5 C          60.5877   86.0027    8.3245 C.ar    1  UNL1       -0.0026
      6 C          61.5096   86.9301    9.0593 C.ar    1  UNL1       -0.0023
      7 C          63.8659   91.1334   11.5149 C.ar    1  UNL1       -0.0061
      8 C          63.4011   91.4787   10.1311 C.ar    1  UNL1       -0.0029
      9 C          62.4791   90.5512    9.3963 C.ar    1  UNL1       -0.0003
     10 C          62.0220   89.2785   10.0454 C.ar    1  UNL1       -0.0003
     11 C          62.4868   88.9333   11.4292 C.ar    1  UNL1       -0.0003
     12 C          63.4087   89.8608   12.1639 C.ar    1  UNL1       -0.0029
     13 C          64.7878   92.0609   12.2496 C.3     1  UNL1        0.0992
     14 C          68.8557   92.4604    9.0413 C.3     1  UNL1        0.0186
     15 C          67.7967   93.1083    9.8832 C.3     1  UNL1        0.0702
     16 C          66.8218   92.2607   10.6454 C.3     1  UNL1        0.0882
     17 N          65.7628   92.9086   11.4873 N.3     1  UNL1       -0.2666
     18 C          65.6787   94.4041   11.5669 C.3     1  UNL1        0.0882
     19 C          66.6536   95.2517   10.8047 C.3     1  UNL1        0.0702
     20 C          66.5696   96.7473   10.8843 C.3     1  UNL1        0.0186
     21 N          67.7126   94.6038    9.9628 N.3     1  UNL1       -0.2974
     22 H          68.6115   94.9308   10.3172 H       1  UNL1        0.1232
     23 C          62.8412   86.4366    9.5425 C.3     1  UNL1        0.1203
     24 N          62.9776   85.0377   10.0662 N.am    1  UNL1       -0.2706
     25 C          63.6775   83.9949    9.2462 C.3     1  UNL1        0.1153
     26 C          62.4140   84.6816   11.4099 C.2     1  UNL1        0.2705
     27 O          61.7141   85.7245   12.2300 O.2     1  UNL1       -0.2708
     28 C          62.5504   83.2827   11.9336 C.3     1  UNL1        0.2896
     29 O          63.3755   83.0172   13.1578 O.3     1  UNL1       -0.4656
     30 C          63.4372   84.0369   14.2563 C.ar    1  UNL1        0.1393
     31 C          62.3861   84.0509   15.3265 C.ar    1  UNL1        0.0369
     32 C          62.4478   85.0704   16.4249 C.ar    1  UNL1        0.0031
     33 C          63.5604   86.0760   16.4532 C.ar    1  UNL1        0.0002
     34 C          64.6114   86.0620   15.3831 C.ar    1  UNL1        0.0031
     35 C          64.5498   85.0424   14.2846 C.ar    1  UNL1        0.0369
@<TRIPOS>BOND
     1    15    14    1
     2    15    16    1
     3    16    17    1
     4    17    13    1
     5    13     7    1
     6     7     8   ar
     7     8     9   ar
     8     9    10   ar
     9    10     1    1
    10     1     2   ar
    11     2     3   ar
    12     3     4   ar
    13     4     5   ar
    14     5     6   ar
    15     6    23    1
    16    23    24    1
    17    24    25    1
    18    24    26   am
    19    26    27    2
    20    26    28    1
    21    28    29    1
    22    29    30    1
    23    30    31   ar
    24    31    32   ar
    25    32    33   ar
    26    33    34   ar
    27    34    35   ar
    28    10    11   ar
    29    11    12   ar
    30    17    18    1
    31    18    19    1
    32    19    20    1
    33    19    21    1
    34    21    15    1
    35    12     7   ar
    36     6     1   ar
    37    35    30   ar
    38    21    22    1
@<TRIPOS>MOLECULE
*****
 35 38 0 0 0
SMALL
GASTEIGER

@<TRIPOS>ATOM
      1 C          61.0973   88.3476    9.3149 C.ar    1  UNL1       -0.0024
      2 C          59.7639   88.8427    8.8384 C.ar    1  UNL1       -0.0003
      3 C          58.8397   87.9180    8.1030 C.ar    1  UNL1       -0.0000
      4 C          59.2488   86.4983    7.8441 C.ar    1  UNL1       -0.0003
      5 C          60.5822   86.0032    8.3205 C.ar    1  UNL1       -0.0026
      6 C          61.5064   86.9279    9.0559 C.ar    1  UNL1       -0.0023
      7 C          63.8700   91.1215   11.5212 C.ar    1  UNL1       -0.0061
      8 C          63.4076   89.8507   12.1703 C.ar    1  UNL1       -0.0029
      9 C          62.4834   88.9260   11.4349 C.ar    1  UNL1       -0.0003
     10 C          62.0215   89.2722   10.0503 C.ar    1  UNL1       -0.0003
     11 C          62.4839   90.5430    9.4013 C.ar    1  UNL1       -0.0003
     12 C          63.4081   91.4676   10.1367 C.ar    1  UNL1       -0.0029
     13 C          64.7942   92.0461   12.2566 C.3     1  UNL1        0.0992
     14 C          66.5594   96.7412   10.9000 C.3     1  UNL1        0.0186
     15 C          66.6476   95.2462   10.8161 C.3     1  UNL1        0.0702
     16 C          65.6768   94.3937   11.5783 C.3     1  UNL1        0.0882
     17 N          65.7650   92.8986   11.4944 N.3     1  UNL1       -0.2666
     18 C          66.8239   92.2561   10.6484 C.3     1  UNL1        0.0882
     19 C          67.7947   93.1086    9.8863 C.3     1  UNL1        0.0702
     20 C          68.8537   92.4660    9.0403 C.3     1  UNL1        0.0186
     21 N          67.7065   94.6036    9.9702 N.3     1  UNL1       -0.2974
     22 H          67.5701   94.9444    9.0185 H       1  UNL1        0.1232
     23 C          62.8398   86.4328    9.5324 C.3     1  UNL1        0.1203
     24 N          62.9759   85.0357   10.0612 N.am    1  UNL1       -0.2706
     25 C          63.6780   83.9904    9.2462 C.3     1  UNL1        0.1153
     26 C          62.4098   84.6840   11.4050 C.2     1  UNL1        0.2705
     27 O          61.7077   85.7293   12.2201 O.2     1  UNL1       -0.2708
     28 C          62.5459   83.2869   11.9338 C.3     1  UNL1        0.2896
     29 O          63.3772   83.0246   13.1545 O.3     1  UNL1       -0.4656
     30 C          63.4350   84.0420   14.2553 C.ar    1  UNL1        0.1393
     31 C          64.5436   85.0520   14.2856 C.ar    1  UNL1        0.0369
     32 C          64.6015   86.0694   15.3863 C.ar    1  UNL1        0.0031
     33 C          63.5508   86.0766   16.4568 C.ar    1  UNL1        0.0002
     34 C          62.4422   85.0666   16.4265 C.ar    1  UNL1        0.0031
     35 C          62.3843   84.0493   15.3258 C.ar    1  UNL1        0.0369
@<TRIPOS>BOND
     1    15    14    1
     2    15    16    1
     3    16    17    1
     4    17    13    1
     5    13     7    1
     6     7     8   ar
     7     8     9   ar
     8     9    10   ar
     9    10     1    1
    10     1     2   ar
    11     2     3   ar
    12     3     4   ar
    13     4     5   ar
    14     5     6   ar
    15     6    23    1
    16    23    24    1
    17    24    25    1
    18    24    26   am
    19    26    27    2
    20    26    28    1
    21    28    29    1
    22    29    30    1
    23    30    31   ar
    24    31    32   ar
    25    32    33   ar
    26    33    34   ar
    27    34    35   ar
    28    10    11   ar
    29    11    12   ar
    30    17    18    1
    31    18    19    1
    32    19    20    1
    33    19    21    1
    34    21    15    1
    35    12     7   ar
    36     6     1   ar
    37    35    30   ar
    38    21    22    1
@<TRIPOS>MOLECULE
*****
 35 38 0 0 0
SMALL
GASTEIGER

@<TRIPOS>ATOM
      1 C          61.1767   87.6902    9.5518 C.ar    1  UNL1       -0.0024
      2 C          59.9797   88.2591    8.8490 C.ar    1  UNL1       -0.0003
      3 C          59.3278   87.4916    7.7373 C.ar    1  UNL1       -0.0000
      4 C          59.8727   86.1552    7.3284 C.ar    1  UNL1       -0.0003
      5 C          61.0696   85.5864    8.0311 C.ar    1  UNL1       -0.0026
      6 C          61.7215   86.3539    9.1428 C.ar    1  UNL1       -0.0023
      7 C          63.1326   89.9927   12.8869 C.ar    1  UNL1       -0.0061
      8 C          63.4272   88.5325   12.7102 C.ar    1  UNL1       -0.0029
      9 C          62.7752   87.7650   11.5985 C.ar    1  UNL1       -0.0003
     10 C          61.8286   88.4577   10.6635 C.ar    1  UNL1       -0.0003
     11 C          61.5341   89.9178   10.8401 C.ar    1  UNL1       -0.0003
     12 C          62.1861   90.6853   11.9518 C.ar    1  UNL1       -0.0029
     13 C          63.7846   90.7601   13.9986 C.3     1  UNL1        0.0992
     14 C          67.9286   93.4499   15.6087 C.3     1  UNL1        0.0186
     15 C          67.0023   93.0267   14.5073 C.3     1  UNL1        0.0702
     16 C          65.8566   92.1051   14.8036 C.3     1  UNL1        0.0882
     17 N          64.9303   91.6819   13.7023 N.3     1  UNL1       -0.2666
     18 C          65.1498   92.1804   12.3047 C.3     1  UNL1        0.0882
     19 C          66.2955   93.1020   12.0084 C.3     1  UNL1        0.0702
     20 C          66.5150   93.6006   10.6108 C.3     1  UNL1        0.0186
     21 N          67.2217   93.5252   13.1097 N.3     1  UNL1       -0.2974
     22 H          67.1841   94.5437   13.1511 H       1  UNL1        0.1232
     23 C          62.9185   85.7850    9.8456 C.3     1  UNL1        0.1203
     24 N          62.7404   84.7239   10.8907 N.am    1  UNL1       -0.2706
     25 C          61.7278   84.9085   11.9819 C.3     1  UNL1        0.1153
     26 C          63.5749   83.4783   10.8448 C.2     1  UNL1        0.2705
     27 O          64.5875   83.2938    9.7537 O.2     1  UNL1       -0.2708
     28 C          63.3969   82.4173   11.8900 C.3     1  UNL1        0.2896
     29 O          64.1988   82.4700   13.1565 O.3     1  UNL1       -0.4656
     30 C          63.9914   83.5928   14.1294 C.ar    1  UNL1        0.1393
     31 C          64.9155   84.7743   14.1193 C.ar    1  UNL1        0.0369
     32 C          64.7081   85.8970   15.0921 C.ar    1  UNL1        0.0031
     33 C          63.5766   85.8382   16.0750 C.ar    1  UNL1        0.0002
     34 C          62.6524   84.6567   16.0851 C.ar    1  UNL1        0.0031
     35 C          62.8599   83.5340   15.1123 C.ar    1  UNL1        0.0369
@<TRIPOS>BOND
     1    15    14    1
     2    15    16    1
     3    16    17    1
     4    17    13    1
     5    13     7    1
     6     7     8   ar
     7     8     9   ar
     8     9    10   ar
     9    10     1    1
    10     1     2   ar
    11     2     3   ar
    12     3     4   ar
    13     4     5   ar
    14     5     6   ar
    15     6    23    1
    16    23    24    1
    17    24    25    1
    18    24    26   am
    19    26    27    2
    20    26    28    1
    21    28    29    1
    22    29    30    1
    23    30    31   ar
    24    31    32   ar
    25    32    33   ar
    26    33    34   ar
    27    34    35   ar
    28    10    11   ar
    29    11    12   ar
    30    17    18    1
    31    18    19    1
    32    19    20    1
    33    19    21    1
    34    21    15    1
    35    12     7   ar
    36     6     1   ar
    37    35    30   ar
    38    21    22    1
@<TRIPOS>MOLECULE
*****
 35 38 0 0 0
SMALL
GASTEIGER

@<TRIPOS>ATOM
      1 C          62.9552   82.3392   12.2113 C.ar    1  UNL1       -0.0024
      2 C          62.3718   81.0499   11.7138 C.ar    1  UNL1       -0.0003
      3 C          62.5923   79.7808   12.4825 C.ar    1  UNL1       -0.0000
      4 C          63.3963   79.8011   13.7487 C.ar    1  UNL1       -0.0003
      5 C          63.9797   81.0903   14.2462 C.ar    1  UNL1       -0.0026
      6 C          63.7591   82.3593   13.4775 C.ar    1  UNL1       -0.0023
      7 C          62.2936   86.1463    9.9052 C.ar    1  UNL1       -0.0061
      8 C          61.7519   86.0089   11.2973 C.ar    1  UNL1       -0.0029
      9 C          61.9724   84.7398   12.0660 C.ar    1  UNL1       -0.0003
     10 C          62.7347   83.6082   11.4426 C.ar    1  UNL1       -0.0003
     11 C          63.2764   83.7457   10.0506 C.ar    1  UNL1       -0.0003
     12 C          63.0559   85.0147    9.2819 C.ar    1  UNL1       -0.0029
     13 C          62.0731   87.4153    9.1365 C.3     1  UNL1        0.0992
     14 C          58.9588   90.7489   11.6242 C.3     1  UNL1        0.0186
     15 C          60.3185   90.3770   11.1113 C.3     1  UNL1        0.0702
     16 C          60.5160   89.0821   10.3804 C.3     1  UNL1        0.0882
     17 N          61.8756   88.7103    9.8675 N.3     1  UNL1       -0.2666
     18 C          63.0377   89.6332   10.0854 C.3     1  UNL1        0.0882
     19 C          62.8402   90.9281   10.8164 C.3     1  UNL1        0.0702
     20 C          64.0023   91.8511   11.0344 C.3     1  UNL1        0.0186
     21 N          61.4806   91.3000   11.3293 N.3     1  UNL1       -0.2974
     22 H          61.2353   92.1898   10.8952 H       1  UNL1        0.1232
     23 C          64.3426   83.6486   13.9751 C.3     1  UNL1        0.1203
     24 N          63.6359   84.4285   15.0439 N.am    1  UNL1       -0.2706
     25 C          62.3232   83.9427   15.5830 C.3     1  UNL1        0.1153
     26 C          64.2420   85.6942   15.5735 C.2     1  UNL1        0.2705
     27 O          65.5548   86.1801   15.0344 O.2     1  UNL1       -0.2708
     28 C          63.5354   86.4741   16.6423 C.3     1  UNL1        0.2896
     29 O          62.7525   87.7017   16.2816 O.3     1  UNL1       -0.4656
     30 C          63.4685   88.9528   15.8666 C.ar    1  UNL1        0.1393
     31 C          63.4059   90.1753   16.7336 C.ar    1  UNL1        0.0369
     32 C          64.1218   91.4264   16.3187 C.ar    1  UNL1        0.0031
     33 C          64.9003   91.4550   15.0369 C.ar    1  UNL1        0.0002
     34 C          64.9629   90.2325   14.1700 C.ar    1  UNL1        0.0031
     35 C          64.2470   88.9814   14.5848 C.ar    1  UNL1        0.0369
@<TRIPOS>BOND
     1    15    14    1
     2    15    16    1
     3    16    17    1
     4    17    13    1
     5    13     7    1
     6     7     8   ar
     7     8     9   ar
     8     9    10   ar
     9    10     1    1
    10     1     2   ar
    11     2     3   ar
    12     3     4   ar
    13     4     5   ar
    14     5     6   ar
    15     6    23    1
    16    23    24    1
    17    24    25    1
    18    24    26   am
    19    26    27    2
    20    26    28    1
    21    28    29    1
    22    29    30    1
    23    30    31   ar
    24    31    32   ar
    25    32    33   ar
    26    33    34   ar
    27    34    35   ar
    28    10    11   ar
    29    11    12   ar
    30    17    18    1
    31    18    19    1
    32    19    20    1
    33    19    21    1
    34    21    15    1
    35    12     7   ar
    36     6     1   ar
    37    35    30   ar
    38    21    22    1
@<TRIPOS>MOLECULE
*****
 35 38 0 0 0
SMALL
GASTEIGER

@<TRIPOS>ATOM
      1 C          62.9446   82.3493   12.2388 C.ar    1  UNL1       -0.0024
      2 C          62.3574   81.0594   11.7472 C.ar    1  UNL1       -0.0003
      3 C          62.5754   79.7931   12.5210 C.ar    1  UNL1       -0.0000
      4 C          63.3806   79.8165   13.7864 C.ar    1  UNL1       -0.0003
      5 C          63.9678   81.1063   14.2780 C.ar    1  UNL1       -0.0026
      6 C          63.7498   82.3727   13.5041 C.ar    1  UNL1       -0.0023
      7 C          62.2907   86.1484    9.9173 C.ar    1  UNL1       -0.0061
      8 C          63.0902   85.0304    9.3164 C.ar    1  UNL1       -0.0029
      9 C          63.3082   83.7641   10.0902 C.ar    1  UNL1       -0.0003
     10 C          62.7266   83.6156   11.4650 C.ar    1  UNL1       -0.0003
     11 C          61.9271   84.7335   12.0658 C.ar    1  UNL1       -0.0003
     12 C          61.7091   85.9999   11.2920 C.ar    1  UNL1       -0.0029
     13 C          62.0727   87.4147    9.1435 C.3     1  UNL1        0.0992
     14 C          64.0253   91.8510   11.0162 C.3     1  UNL1        0.0186
     15 C          62.8587   90.9318   10.8054 C.3     1  UNL1        0.0702
     16 C          63.0489   89.6329   10.0799 C.3     1  UNL1        0.0882
     17 N          61.8824   88.7137    9.8691 N.3     1  UNL1       -0.2666
     18 C          60.5257   89.0935   10.3840 C.3     1  UNL1        0.0882
     19 C          60.3355   90.3925   11.1095 C.3     1  UNL1        0.0702
     20 C          58.9788   90.7723   11.6244 C.3     1  UNL1        0.0186
     21 N          61.5021   91.3116   11.3203 N.3     1  UNL1       -0.2974
     22 H          61.5954   91.4427   12.3275 H       1  UNL1        0.1232
     23 C          64.3370   83.6625   13.9957 C.3     1  UNL1        0.1203
     24 N          63.6297   84.4524   15.0567 N.am    1  UNL1       -0.2706
     25 C          62.3123   83.9763   15.5931 C.3     1  UNL1        0.1153
     26 C          64.2397   85.7184   15.5812 C.2     1  UNL1        0.2705
     27 O          65.5571   86.1945   15.0448 O.2     1  UNL1       -0.2708
     28 C          63.5324   86.5083   16.6422 C.3     1  UNL1        0.2896
     29 O          62.7567   87.7372   16.2705 O.3     1  UNL1       -0.4656
     30 C          63.4808   88.9927   15.8839 C.ar    1  UNL1        0.1393
     31 C          64.2596   89.0452   14.6030 C.ar    1  UNL1        0.0369
     32 C          64.9837   90.3006   14.2163 C.ar    1  UNL1        0.0031
     33 C          64.9289   91.5036   15.1106 C.ar    1  UNL1        0.0002
     34 C          64.1501   91.4512   16.3915 C.ar    1  UNL1        0.0031
     35 C          63.4261   90.1957   16.7781 C.ar    1  UNL1        0.0369
@<TRIPOS>BOND
     1    15    14    1
     2    15    16    1
     3    16    17    1
     4    17    13    1
     5    13     7    1
     6     7     8   ar
     7     8     9   ar
     8     9    10   ar
     9    10     1    1
    10     1     2   ar
    11     2     3   ar
    12     3     4   ar
    13     4     5   ar
    14     5     6   ar
    15     6    23    1
    16    23    24    1
    17    24    25    1
    18    24    26   am
    19    26    27    2
    20    26    28    1
    21    28    29    1
    22    29    30    1
    23    30    31   ar
    24    31    32   ar
    25    32    33   ar
    26    33    34   ar
    27    34    35   ar
    28    10    11   ar
    29    11    12   ar
    30    17    18    1
    31    18    19    1
    32    19    20    1
    33    19    21    1
    34    21    15    1
    35    12     7   ar
    36     6     1   ar
    37    35    30   ar
    38    21    22    1
@<TRIPOS>MOLECULE
*****
 35 38 0 0 0
SMALL
GASTEIGER

@<TRIPOS>ATOM
      1 C          60.7048   88.4502    9.3234 C.ar    1  UNL1       -0.0024
      2 C          60.0862   89.4056    8.3462 C.ar    1  UNL1       -0.0003
      3 C          59.3101   88.8819    7.1743 C.ar    1  UNL1       -0.0000
      4 C          59.1527   87.4029    6.9795 C.ar    1  UNL1       -0.0003
      5 C          59.7713   86.4477    7.9566 C.ar    1  UNL1       -0.0026
      6 C          60.5474   86.9713    9.1286 C.ar    1  UNL1       -0.0023
      7 C          63.0330   90.0213   12.8393 C.ar    1  UNL1       -0.0061
      8 C          62.0022   90.8857   12.1757 C.ar    1  UNL1       -0.0029
      9 C          61.2261   90.3620   11.0037 C.ar    1  UNL1       -0.0003
     10 C          61.4809   88.9739   10.4954 C.ar    1  UNL1       -0.0003
     11 C          62.5116   88.1096   11.1590 C.ar    1  UNL1       -0.0003
     12 C          63.2877   88.6333   12.3309 C.ar    1  UNL1       -0.0029
     13 C          63.8091   90.5450   14.0112 C.3     1  UNL1        0.0992
     14 C          66.3259   93.8584   10.8989 C.3     1  UNL1        0.0186
     15 C          66.1508   93.2174   12.2437 C.3     1  UNL1        0.0702
     16 C          65.0675   92.2017   12.4551 C.3     1  UNL1        0.0882
     17 N          64.8924   91.5608   13.7999 N.3     1  UNL1       -0.2666
     18 C          65.8007   91.9355   14.9333 C.3     1  UNL1        0.0882
     19 C          66.8839   92.9512   14.7219 C.3     1  UNL1        0.0702
     20 C          67.7922   93.3260   15.8553 C.3     1  UNL1        0.0186
     21 N          67.0590   93.5922   13.3771 N.3     1  UNL1       -0.2974
     22 H          68.0103   93.3841   13.0733 H       1  UNL1        0.1232
     23 C          61.1660   86.0160   10.1057 C.3     1  UNL1        0.1203
     24 N          62.3771   85.2223    9.7144 N.am    1  UNL1       -0.2706
     25 C          62.8285   85.1991    8.2841 C.3     1  UNL1        0.1153
     26 C          63.1367   84.4518   10.7532 C.2     1  UNL1        0.2705
     27 O          62.6853   84.4750   12.1835 O.2     1  UNL1       -0.2708
     28 C          64.3478   83.6580   10.3618 C.3     1  UNL1        0.2896
     29 O          64.8533   82.5687   11.2607 O.3     1  UNL1       -0.4656
     30 C          63.9277   81.9204   12.2472 C.ar    1  UNL1        0.1393
     31 C          63.0597   80.7741   11.8198 C.ar    1  UNL1        0.0369
     32 C          62.1341   80.1259   12.8062 C.ar    1  UNL1        0.0031
     33 C          62.0765   80.6238   14.2200 C.ar    1  UNL1        0.0002
     34 C          62.9445   81.7701   14.6473 C.ar    1  UNL1        0.0031
     35 C          63.8701   82.4184   13.6609 C.ar    1  UNL1        0.0369
@<TRIPOS>BOND
     1    15    14    1
     2    15    16    1
     3    16    17    1
     4    17    13    1
     5    13     7    1
     6     7     8   ar
     7     8     9   ar
     8     9    10   ar
     9    10     1    1
    10     1     2   ar
    11     2     3   ar
    12     3     4   ar
    13     4     5   ar
    14     5     6   ar
    15     6    23    1
    16    23    24    1
    17    24    25    1
    18    24    26   am
    19    26    27    2
    20    26    28    1
    21    28    29    1
    22    29    30    1
    23    30    31   ar
    24    31    32   ar
    25    32    33   ar
    26    33    34   ar
    27    34    35   ar
    28    10    11   ar
    29    11    12   ar
    30    17    18    1
    31    18    19    1
    32    19    20    1
    33    19    21    1
    34    21    15    1
    35    12     7   ar
    36     6     1   ar
    37    35    30   ar
    38    21    22    1
@<TRIPOS>MOLECULE
*****
 35 38 0 0 0
SMALL
GASTEIGER

@<TRIPOS>ATOM
      1 C          64.6207   89.7271   14.1699 C.ar    1  UNL1       -0.0024
      2 C          65.9589   90.2836   14.5568 C.ar    1  UNL1       -0.0003
      3 C          66.3287   91.6849   14.1701 C.ar    1  UNL1       -0.0000
      4 C          65.3603   92.5298   13.3965 C.ar    1  UNL1       -0.0003
      5 C          64.0222   91.9733   13.0096 C.ar    1  UNL1       -0.0026
      6 C          63.6524   90.5720   13.3963 C.ar    1  UNL1       -0.0023
      7 C          63.5114   85.5232   15.3300 C.ar    1  UNL1       -0.0061
      8 C          63.4867   86.6160   16.3573 C.ar    1  UNL1       -0.0029
      9 C          63.8565   88.0173   15.9706 C.ar    1  UNL1       -0.0003
     10 C          64.2509   88.3258   14.5566 C.ar    1  UNL1       -0.0003
     11 C          64.2756   87.2330   13.5294 C.ar    1  UNL1       -0.0003
     12 C          63.9058   85.8317   13.9161 C.ar    1  UNL1       -0.0029
     13 C          63.1416   84.1218   15.7167 C.3     1  UNL1        0.0992
     14 C          64.0723   82.0822   11.0291 C.3     1  UNL1        0.0186
     15 C          63.2947   82.0888   12.3118 C.3     1  UNL1        0.0702
     16 C          63.6069   83.1020   13.3729 C.3     1  UNL1        0.0882
     17 N          62.8293   83.1086   14.6556 N.3     1  UNL1       -0.2666
     18 C          61.7395   82.1021   14.8772 C.3     1  UNL1        0.0882
     19 C          61.4272   81.0889   13.8161 C.3     1  UNL1        0.0702
     20 C          60.3374   80.0823   14.0377 C.3     1  UNL1        0.0186
     21 N          62.2048   81.0823   12.5334 N.3     1  UNL1       -0.2974
     22 H          61.5298   81.2083   11.7792 H       1  UNL1        0.1232
     23 C          62.3142   90.0155   13.0093 C.3     1  UNL1        0.1203
     24 N          61.9854   89.7901   11.5633 N.am    1  UNL1       -0.2706
     25 C          63.0085   90.0848   10.5068 C.3     1  UNL1        0.1153
     26 C          60.6334   89.2699   11.1739 C.2     1  UNL1        0.2705
     27 O          59.6103   88.9752   12.2304 O.2     1  UNL1       -0.2708
     28 C          60.3046   89.0445    9.7279 C.3     1  UNL1        0.2896
     29 O          59.8124   87.7032    9.2709 O.3     1  UNL1       -0.4656
     30 C          60.7651   86.7279    8.6454 C.ar    1  UNL1        0.1393
     31 C          62.1330   86.5356    9.2303 C.ar    1  UNL1        0.0369
     32 C          63.0857   85.5603    8.6049 C.ar    1  UNL1        0.0031
     33 C          62.6706   84.7775    7.3946 C.ar    1  UNL1        0.0002
     34 C          61.3028   84.9698    6.8098 C.ar    1  UNL1        0.0031
     35 C          60.3500   85.9451    7.4352 C.ar    1  UNL1        0.0369
@<TRIPOS>BOND
     1    15    14    1
     2    15    16    1
     3    16    17    1
     4    17    13    1
     5    13     7    1
     6     7     8   ar
     7     8     9   ar
     8     9    10   ar
     9    10     1    1
    10     1     2   ar
    11     2     3   ar
    12     3     4   ar
    13     4     5   ar
    14     5     6   ar
    15     6    23    1
    16    23    24    1
    17    24    25    1
    18    24    26   am
    19    26    27    2
    20    26    28    1
    21    28    29    1
    22    29    30    1
    23    30    31   ar
    24    31    32   ar
    25    32    33   ar
    26    33    34   ar
    27    34    35   ar
    28    10    11   ar
    29    11    12   ar
    30    17    18    1
    31    18    19    1
    32    19    20    1
    33    19    21    1
    34    21    15    1
    35    12     7   ar
    36     6     1   ar
    37    35    30   ar
    38    21    22    1
@<TRIPOS>MOLECULE
*****
 35 38 0 0 0
SMALL
GASTEIGER

@<TRIPOS>ATOM
      1 C          63.4401   85.3264   12.5369 C.ar    1  UNL1       -0.0024
      2 C          64.3976   84.2483   12.9507 C.ar    1  UNL1       -0.0003
      3 C          64.2595   82.8655   12.3862 C.ar    1  UNL1       -0.0000
      4 C          63.1640   82.5607   11.4080 C.ar    1  UNL1       -0.0003
      5 C          62.2065   83.6387   10.9943 C.ar    1  UNL1       -0.0026
      6 C          62.3446   85.0215   11.5588 C.ar    1  UNL1       -0.0023
      7 C          63.8544   89.4749   14.2304 C.ar    1  UNL1       -0.0061
      8 C          63.3032   89.2804   12.8489 C.ar    1  UNL1       -0.0029
      9 C          63.1652   87.8975   12.2844 C.ar    1  UNL1       -0.0003
     10 C          63.5782   86.7092   13.1014 C.ar    1  UNL1       -0.0003
     11 C          64.1294   86.9038   14.4828 C.ar    1  UNL1       -0.0003
     12 C          64.2675   88.2867   15.0473 C.ar    1  UNL1       -0.0029
     13 C          63.9925   90.8578   14.7949 C.3     1  UNL1        0.0992
     14 C          66.2692   93.5935   11.0090 C.3     1  UNL1        0.0186
     15 C          66.2395   93.1202   12.4321 C.3     1  UNL1        0.0702
     16 C          65.1309   92.2257   12.9020 C.3     1  UNL1        0.0882
     17 N          65.1011   91.7524   14.3250 N.3     1  UNL1       -0.2666
     18 C          66.1799   92.1737   15.2782 C.3     1  UNL1        0.0882
     19 C          67.2885   93.0683   14.8084 C.3     1  UNL1        0.0702
     20 C          68.3674   93.4897   15.7616 C.3     1  UNL1        0.0186
     21 N          67.3182   93.5415   13.3853 N.3     1  UNL1       -0.2974
     22 H          68.2025   93.2245   12.9880 H       1  UNL1        0.1232
     23 C          61.3871   86.0996   11.1450 C.3     1  UNL1        0.1203
     24 N          61.2883   86.5021    9.7035 N.am    1  UNL1       -0.2706
     25 C          62.1928   85.8733    8.6855 C.3     1  UNL1        0.1153
     26 C          60.2849   87.5336    9.2799 C.2     1  UNL1        0.2705
     27 O          59.3804   88.1624   10.2978 O.2     1  UNL1       -0.2708
     28 C          60.1861   87.9361    7.8383 C.3     1  UNL1        0.2896
     29 O          58.9240   88.5577    7.3180 O.3     1  UNL1       -0.4656
     30 C          58.9950   89.7040    6.3531 C.ar    1  UNL1        0.1393
     31 C          60.3247   90.1703    5.8390 C.ar    1  UNL1        0.0369
     32 C          60.3957   91.3166    4.8742 C.ar    1  UNL1        0.0031
     33 C          59.1370   91.9966    4.4235 C.ar    1  UNL1        0.0002
     34 C          57.8072   91.5303    4.9376 C.ar    1  UNL1        0.0031
     35 C          57.7362   90.3840    5.9025 C.ar    1  UNL1        0.0369
@<TRIPOS>BOND
     1    15    14    1
     2    15    16    1
     3    16    17    1
     4    17    13    1
     5    13     7    1
     6     7     8   ar
     7     8     9   ar
     8     9    10   ar
     9    10     1    1
    10     1     2   ar
    11     2     3   ar
    12     3     4   ar
    13     4     5   ar
    14     5     6   ar
    15     6    23    1
    16    23    24    1
    17    24    25    1
    18    24    26   am
    19    26    27    2
    20    26    28    1
    21    28    29    1
    22    29    30    1
    23    30    31   ar
    24    31    32   ar
    25    32    33   ar
    26    33    34   ar
    27    34    35   ar
    28    10    11   ar
    29    11    12   ar
    30    17    18    1
    31    18    19    1
    32    19    20    1
    33    19    21    1
    34    21    15    1
    35    12     7   ar
    36     6     1   ar
    37    35    30   ar
    38    21    22    1
@<TRIPOS>MOLECULE
*****
 35 38 0 0 0
SMALL
GASTEIGER

@<TRIPOS>ATOM
      1 C          63.2715   84.3383   13.1567 C.ar    1  UNL1       -0.0024
      2 C          62.9432   83.2861   14.1742 C.ar    1  UNL1       -0.0003
      3 C          62.6761   81.8766   13.7361 C.ar    1  UNL1       -0.0000
      4 C          62.7373   81.5192   12.2806 C.ar    1  UNL1       -0.0003
      5 C          63.0657   82.5713   11.2632 C.ar    1  UNL1       -0.0026
      6 C          63.3328   83.9809   11.7012 C.ar    1  UNL1       -0.0023
      7 C          64.0728   88.5669   14.4708 C.ar    1  UNL1       -0.0061
      8 C          64.3366   87.4270   15.4096 C.ar    1  UNL1       -0.0029
      9 C          64.0695   86.0175   14.9715 C.ar    1  UNL1       -0.0003
     10 C          63.5386   85.7478   13.5947 C.ar    1  UNL1       -0.0003
     11 C          63.2749   86.8876   12.6561 C.ar    1  UNL1       -0.0003
     12 C          63.5420   88.2972   13.0941 C.ar    1  UNL1       -0.0029
     13 C          64.3399   89.9764   14.9089 C.3     1  UNL1        0.0992
     14 C          68.9584   92.2895   14.3441 C.3     1  UNL1        0.0186
     15 C          67.5783   92.0020   13.8318 C.3     1  UNL1        0.0702
     16 C          66.6492   91.1330   14.6265 C.3     1  UNL1        0.0882
     17 N          65.2690   90.8455   14.1141 N.3     1  UNL1       -0.2666
     18 C          64.8180   91.4270   12.8071 C.3     1  UNL1        0.0882
     19 C          65.7470   92.2960   12.0124 C.3     1  UNL1        0.0702
     20 C          65.2960   92.8775   10.7054 C.3     1  UNL1        0.0186
     21 N          67.1272   92.5835   12.5248 N.3     1  UNL1       -0.2974
     22 H          67.2040   93.5969   12.6112 H       1  UNL1        0.1232
     23 C          63.6611   85.0330   10.6837 C.3     1  UNL1        0.1203
     24 N          62.6770   85.3620    9.6006 N.am    1  UNL1       -0.2706
     25 C          63.0304   85.1110    8.1646 C.3     1  UNL1        0.1153
     26 C          61.3394   85.9418    9.9534 C.2     1  UNL1        0.2705
     27 O          60.9859   86.1927   11.3894 O.2     1  UNL1       -0.2708
     28 C          60.3552   86.2708    8.8703 C.3     1  UNL1        0.2896
     29 O          59.9702   87.6978    8.6149 O.3     1  UNL1       -0.4656
     30 C          60.4803   88.7847    9.5141 C.ar    1  UNL1        0.1393
     31 C          59.5954   89.3481   10.5863 C.ar    1  UNL1        0.0369
     32 C          60.1055   90.4349   11.4855 C.ar    1  UNL1        0.0031
     33 C          61.5004   90.9584   11.3125 C.ar    1  UNL1        0.0002
     34 C          62.3853   90.3951   10.2403 C.ar    1  UNL1        0.0031
     35 C          61.8753   89.3082    9.3411 C.ar    1  UNL1        0.0369
@<TRIPOS>BOND
     1    15    14    1
     2    15    16    1
     3    16    17    1
     4    17    13    1
     5    13     7    1
     6     7     8   ar
     7     8     9   ar
     8     9    10   ar
     9    10     1    1
    10     1     2   ar
    11     2     3   ar
    12     3     4   ar
    13     4     5   ar
    14     5     6   ar
    15     6    23    1
    16    23    24    1
    17    24    25    1
    18    24    26   am
    19    26    27    2
    20    26    28    1
    21    28    29    1
    22    29    30    1
    23    30    31   ar
    24    31    32   ar
    25    32    33   ar
    26    33    34   ar
    27    34    35   ar
    28    10    11   ar
    29    11    12   ar
    30    17    18    1
    31    18    19    1
    32    19    20    1
    33    19    21    1
    34    21    15    1
    35    12     7   ar
    36     6     1   ar
    37    35    30   ar
    38    21    22    1
