@<TRIPOS>MOLECULE
*****
 27 28 0 0 0
SMALL
GASTEIGER

@<TRIPOS>ATOM
      1 C          63.2916   90.8071   11.5100 C.ar    1  UNL1        0.2214
      2 N          63.7091   90.5279   12.9234 N.ar    1  UNL1       -0.1994
      3 C          64.8355   91.3033   13.5397 C.ar    1  UNL1        0.1270
      4 N          65.2531   91.0241   14.9532 N.pl3   1  UNL1       -0.3427
      5 C          65.5444   92.3580   12.7428 C.ar    1  UNL1        0.0424
      6 C          65.1268   92.6372   11.3294 C.ar    1  UNL1        0.0849
      7 N          64.0004   91.8618   10.7130 N.ar    1  UNL1       -0.2138
      8 H          64.7878   90.3319   15.4763 H       1  UNL1        0.1437
      9 H          65.9924   91.5330   15.3578 H       1  UNL1        0.1437
     10 C          65.8357   93.6919   10.5323 C.ar    1  UNL1        0.0282
     11 C          65.2713   95.0796   10.4552 C.ar    1  UNL1        0.0032
     12 C          65.9801   96.1342    9.6582 C.ar    1  UNL1        0.0115
     13 C          67.2533   95.8013    8.9383 C.ar    1  UNL1        0.0585
     14 CL         67.9620   96.8559    8.1413 Cl      1  UNL1       -0.0822
     15 C          67.8176   94.4136    9.0154 C.ar    1  UNL1        0.0228
     16 C          67.1087   93.3589    9.8124 C.ar    1  UNL1        0.0599
     17 CL         67.6731   91.9712    9.8895 Cl      1  UNL1       -0.0822
     18 C          66.6708   93.1334   13.3591 C.3     1  UNL1        0.0965
     19 N          66.4227   93.9806   14.5719 N.3     1  UNL1       -0.3173
     20 H          65.7995   94.7501   14.3274 H       1  UNL1        0.1192
     21 H          67.3084   94.3552   14.9118 H       1  UNL1        0.1192
     22 N          62.1652   90.0317   10.8936 N.pl3   1  UNL1       -0.2738
     23 C          60.7453   90.4486   11.1387 C.3     1  UNL1        0.1151
     24 C          62.4587   88.8393   10.0322 C.3     1  UNL1        0.1257
     25 C          61.4838   87.7010    9.9697 C.3     1  UNL1        0.1637
     26 C          59.8195   88.4800    8.1331 C.3     1  UNL1        0.1742
     27 O          60.7268   87.4304    8.7033 O.3     1  UNL1       -0.3493
@<TRIPOS>BOND
     1    26    27    1
     2    27    25    1
     3    25    24    1
     4    24    22    1
     5    22    23    1
     6    22     1    1
     7     1     2   ar
     8     2     3   ar
     9     3     4    1
    10     3     5   ar
    11     5    18    1
    12    18    19    1
    13     5     6   ar
    14     6    10    1
    15    10    11   ar
    16    11    12   ar
    17    12    13   ar
    18    13    14    1
    19    13    15   ar
    20    15    16   ar
    21    16    17    1
    22     6     7   ar
    23     7     1   ar
    24    16    10   ar
    25     4     8    1
    26     4     9    1
    27    19    20    1
    28    19    21    1
@<TRIPOS>MOLECULE
*****
 27 28 0 0 0
SMALL
GASTEIGER

@<TRIPOS>ATOM
      1 C          62.3690   87.5444   11.3867 C.ar    1  UNL1        0.2214
      2 N          63.1552   88.3342   12.3908 N.ar    1  UNL1       -0.1994
      3 C          63.8108   87.6374   13.5460 C.ar    1  UNL1        0.1270
      4 N          64.5971   88.4272   14.5500 N.pl3   1  UNL1       -0.3427
      5 C          63.6803   86.1507   13.6972 C.ar    1  UNL1        0.0424
      6 C          62.8941   85.3610   12.6932 C.ar    1  UNL1        0.0849
      7 N          62.2384   86.0578   11.5379 N.ar    1  UNL1       -0.2138
      8 H          64.6828   89.4029   14.4508 H       1  UNL1        0.1437
      9 H          65.0274   87.9699   15.3083 H       1  UNL1        0.1437
     10 C          62.7635   83.8743   12.8443 C.ar    1  UNL1        0.0282
     11 C          62.1181   83.2989   14.0701 C.ar    1  UNL1        0.0032
     12 C          61.9874   81.8123   14.2213 C.ar    1  UNL1        0.0115
     13 C          62.5022   80.9010   13.1467 C.ar    1  UNL1        0.0585
     14 CL         62.3716   79.4144   13.2979 Cl      1  UNL1       -0.0822
     15 C          63.1476   81.4764   11.9210 C.ar    1  UNL1        0.0228
     16 C          63.2782   82.9631   11.7698 C.ar    1  UNL1        0.0599
     17 CL         63.9236   83.5385   10.5441 Cl      1  UNL1       -0.0822
     18 C          64.3359   85.4539   14.8524 C.3     1  UNL1        0.0965
     19 N          65.8320   85.3879   14.9373 N.3     1  UNL1       -0.3173
     20 H          66.1915   84.8207   14.1696 H       1  UNL1        0.1192
     21 H          66.1039   84.9683   15.8264 H       1  UNL1        0.1192
     22 N          61.7134   88.2413   10.2315 N.pl3   1  UNL1       -0.2738
     23 C          61.5604   89.7334   10.2445 C.3     1  UNL1        0.1151
     24 C          61.2107   87.4460    9.0632 C.3     1  UNL1        0.1257
     25 C          59.7449   87.1583    8.9268 C.3     1  UNL1        0.1637
     26 C          59.4050   89.0426    7.1707 C.3     1  UNL1        0.1742
     27 O          58.9681   87.7464    7.7863 O.3     1  UNL1       -0.3493
@<TRIPOS>BOND
     1    26    27    1
     2    27    25    1
     3    25    24    1
     4    24    22    1
     5    22    23    1
     6    22     1    1
     7     1     2   ar
     8     2     3   ar
     9     3     4    1
    10     3     5   ar
    11     5    18    1
    12    18    19    1
    13     5     6   ar
    14     6    10    1
    15    10    11   ar
    16    11    12   ar
    17    12    13   ar
    18    13    14    1
    19    13    15   ar
    20    15    16   ar
    21    16    17    1
    22     6     7   ar
    23     7     1   ar
    24    16    10   ar
    25     4     8    1
    26     4     9    1
    27    19    20    1
    28    19    21    1
@<TRIPOS>MOLECULE
*****
 27 28 0 0 0
SMALL
GASTEIGER

@<TRIPOS>ATOM
      1 C          62.5906   86.2048   12.2139 C.ar    1  UNL1        0.2214
      2 N          61.3630   86.4526   11.3884 N.ar    1  UNL1       -0.1994
      3 C          60.9640   87.8560   11.0403 C.ar    1  UNL1        0.1270
      4 N          59.7363   88.1038   10.2147 N.pl3   1  UNL1       -0.3427
      5 C          61.7926   89.0116   11.5176 C.ar    1  UNL1        0.0424
      6 C          63.0202   88.7638   12.3431 C.ar    1  UNL1        0.0849
      7 N          63.4192   87.3604   12.6912 N.ar    1  UNL1       -0.2138
      8 H          59.1924   87.3453    9.9014 H       1  UNL1        0.1437
      9 H          59.4744   89.0249    9.9862 H       1  UNL1        0.1437
     10 C          63.8489   89.9194   12.8205 C.ar    1  UNL1        0.0282
     11 C          64.1420   91.0643   11.8967 C.ar    1  UNL1        0.0032
     12 C          64.9707   92.2199   12.3740 C.ar    1  UNL1        0.0115
     13 C          65.5063   92.2307   13.7752 C.ar    1  UNL1        0.0585
     14 CL         66.3349   93.3863   14.2525 Cl      1  UNL1       -0.0822
     15 C          65.2132   91.0858   14.6989 C.ar    1  UNL1        0.0228
     16 C          64.3845   89.9301   14.2215 C.ar    1  UNL1        0.0599
     17 CL         64.0914   88.7852   15.1453 Cl      1  UNL1       -0.0822
     18 C          61.3936   90.4150   11.1694 C.3     1  UNL1        0.0965
     19 N          60.0101   90.9014   11.4844 N.3     1  UNL1       -0.3173
     20 H          59.3325   90.3868   10.9218 H       1  UNL1        0.1192
     21 H          59.9429   91.8967   11.2714 H       1  UNL1        0.1192
     22 N          62.9896   84.8013   12.5621 N.pl3   1  UNL1       -0.2738
     23 C          62.9010   83.7181   11.5283 C.3     1  UNL1        0.1151
     24 C          63.4773   84.4812   13.9439 C.3     1  UNL1        0.1257
     25 C          62.6500   83.6182   14.8500 C.3     1  UNL1        0.1637
     26 C          61.5487   81.3652   14.1710 C.3     1  UNL1        0.1742
     27 O          62.7158   82.1245   14.7291 O.3     1  UNL1       -0.3493
@<TRIPOS>BOND
     1    26    27    1
     2    27    25    1
     3    25    24    1
     4    24    22    1
     5    22    23    1
     6    22     1    1
     7     1     2   ar
     8     2     3   ar
     9     3     4    1
    10     3     5   ar
    11     5    18    1
    12    18    19    1
    13     5     6   ar
    14     6    10    1
    15    10    11   ar
    16    11    12   ar
    17    12    13   ar
    18    13    14    1
    19    13    15   ar
    20    15    16   ar
    21    16    17    1
    22     6     7   ar
    23     7     1   ar
    24    16    10   ar
    25     4     8    1
    26     4     9    1
    27    19    20    1
    28    19    21    1
@<TRIPOS>MOLECULE
*****
 27 28 0 0 0
SMALL
GASTEIGER

@<TRIPOS>ATOM
      1 C          62.7542   89.5278   11.6819 C.ar    1  UNL1        0.2214
      2 N          61.7201   89.9833   10.6955 N.ar    1  UNL1       -0.1994
      3 C          60.9591   88.9747    9.8870 C.ar    1  UNL1        0.1270
      4 N          59.9249   89.4303    8.9006 N.pl3   1  UNL1       -0.3427
      5 C          61.2323   87.5106   10.0649 C.ar    1  UNL1        0.0424
      6 C          62.2664   87.0551   11.0513 C.ar    1  UNL1        0.0849
      7 N          63.0274   88.0637   11.8598 N.ar    1  UNL1       -0.2138
      8 H          59.7456   90.3913    8.7838 H       1  UNL1        0.1437
      9 H          59.4255   88.7684    8.3699 H       1  UNL1        0.1437
     10 C          62.5397   85.5909   11.2292 C.ar    1  UNL1        0.0282
     11 C          62.2797   84.9349   12.5529 C.ar    1  UNL1        0.0032
     12 C          62.5529   83.4708   12.7308 C.ar    1  UNL1        0.0115
     13 C          63.0861   82.6626   11.5851 C.ar    1  UNL1        0.0585
     14 CL         63.3593   81.1985   11.7631 Cl      1  UNL1       -0.0822
     15 C          63.3461   83.3186   10.2615 C.ar    1  UNL1        0.0228
     16 C          63.0729   84.7828   10.0835 C.ar    1  UNL1        0.0599
     17 CL         63.3328   85.4388    8.7599 Cl      1  UNL1       -0.0822
     18 C          60.4713   86.5020    9.2564 C.3     1  UNL1        0.0965
     19 N          60.2265   86.7419    7.7961 N.3     1  UNL1       -0.3173
     20 H          59.6137   87.5493    7.6823 H       1  UNL1        0.1192
     21 H          59.7846   85.9192    7.3858 H       1  UNL1        0.1192
     22 N          63.5152   90.5364   12.4904 N.pl3   1  UNL1       -0.2738
     23 C          64.3454   91.5782   11.8009 C.3     1  UNL1        0.1151
     24 C          63.4460   90.5033   13.9884 C.3     1  UNL1        0.1257
     25 C          64.2408   89.4871   14.7536 C.3     1  UNL1        0.1637
     26 C          63.1130   88.5608   16.9031 C.3     1  UNL1        0.1742
     27 O          63.5392   88.3759   15.4769 O.3     1  UNL1       -0.3493
@<TRIPOS>BOND
     1    26    27    1
     2    27    25    1
     3    25    24    1
     4    24    22    1
     5    22    23    1
     6    22     1    1
     7     1     2   ar
     8     2     3   ar
     9     3     4    1
    10     3     5   ar
    11     5    18    1
    12    18    19    1
    13     5     6   ar
    14     6    10    1
    15    10    11   ar
    16    11    12   ar
    17    12    13   ar
    18    13    14    1
    19    13    15   ar
    20    15    16   ar
    21    16    17    1
    22     6     7   ar
    23     7     1   ar
    24    16    10   ar
    25     4     8    1
    26     4     9    1
    27    19    20    1
    28    19    21    1
@<TRIPOS>MOLECULE
*****
 27 28 0 0 0
SMALL
GASTEIGER

@<TRIPOS>ATOM
      1 C          63.8647   89.0809   13.5949 C.ar    1  UNL1        0.2214
      2 N          64.3314   87.9736   14.4928 N.ar    1  UNL1       -0.1994
      3 C          64.0089   86.5481   14.1553 C.ar    1  UNL1        0.1270
      4 N          64.4757   85.4408   15.0532 N.pl3   1  UNL1       -0.3427
      5 C          63.2198   86.2298   12.9200 C.ar    1  UNL1        0.0424
      6 C          62.7531   87.3371   12.0222 C.ar    1  UNL1        0.0849
      7 N          63.0756   88.7626   12.3597 N.ar    1  UNL1       -0.2138
      8 H          64.9936   85.6497   15.8640 H       1  UNL1        0.1437
      9 H          64.2641   84.5052   14.8317 H       1  UNL1        0.1437
     10 C          61.9640   87.0188   10.7869 C.ar    1  UNL1        0.0282
     11 C          62.5662   86.1634    9.7119 C.ar    1  UNL1        0.0032
     12 C          61.7771   85.8452    8.4766 C.ar    1  UNL1        0.0115
     13 C          60.3857   86.3823    8.3162 C.ar    1  UNL1        0.0585
     14 CL         59.5967   86.0640    7.0809 Cl      1  UNL1       -0.0822
     15 C          59.7835   87.2377    9.3912 C.ar    1  UNL1        0.0228
     16 C          60.5727   87.5559   10.6266 C.ar    1  UNL1        0.0599
     17 CL         59.9705   88.4113   11.7016 Cl      1  UNL1       -0.0822
     18 C          62.8974   84.8043   12.5826 C.3     1  UNL1        0.0965
     19 N          64.0010   83.7975   12.4474 N.3     1  UNL1       -0.3173
     20 H          64.5822   84.0359   11.6437 H       1  UNL1        0.1192
     21 H          63.6000   82.8692   12.3136 H       1  UNL1        0.1192
     22 N          64.1871   90.5064   13.9324 N.pl3   1  UNL1       -0.2738
     23 C          64.2433   90.9435   15.3662 C.3     1  UNL1        0.1151
     24 C          64.4534   91.4949   12.8361 C.3     1  UNL1        0.1257
     25 C          65.7526   92.2437   12.8006 C.3     1  UNL1        0.1637
     26 C          67.0129   93.4931   14.6981 C.3     1  UNL1        0.1742
     27 O          65.9381   93.4646   13.6521 O.3     1  UNL1       -0.3493
@<TRIPOS>BOND
     1    26    27    1
     2    27    25    1
     3    25    24    1
     4    24    22    1
     5    22    23    1
     6    22     1    1
     7     1     2   ar
     8     2     3   ar
     9     3     4    1
    10     3     5   ar
    11     5    18    1
    12    18    19    1
    13     5     6   ar
    14     6    10    1
    15    10    11   ar
    16    11    12   ar
    17    12    13   ar
    18    13    14    1
    19    13    15   ar
    20    15    16   ar
    21    16    17    1
    22     6     7   ar
    23     7     1   ar
    24    16    10   ar
    25     4     8    1
    26     4     9    1
    27    19    20    1
    28    19    21    1
@<TRIPOS>MOLECULE
*****
 27 28 0 0 0
SMALL
GASTEIGER

@<TRIPOS>ATOM
      1 C          63.9909   87.1732   14.0410 C.ar    1  UNL1        0.2214
      2 N          64.3740   88.6067   14.2602 N.ar    1  UNL1       -0.1994
      3 C          63.9113   89.6620   13.2999 C.ar    1  UNL1        0.1270
      4 N          64.2945   91.0956   13.5191 N.pl3   1  UNL1       -0.3427
      5 C          63.0655   89.2837   12.1203 C.ar    1  UNL1        0.0424
      6 C          62.6823   87.8502   11.9011 C.ar    1  UNL1        0.0849
      7 N          63.1450   86.7949   12.8615 N.ar    1  UNL1       -0.2138
      8 H          64.8496   91.3439   14.2933 H       1  UNL1        0.1437
      9 H          63.9908   91.7883   12.8888 H       1  UNL1        0.1437
     10 C          61.8365   87.4719   10.7215 C.ar    1  UNL1        0.0282
     11 C          62.4438   86.7229    9.5725 C.ar    1  UNL1        0.0032
     12 C          61.5980   86.3445    8.3929 C.ar    1  UNL1        0.0115
     13 C          60.1448   86.7152    8.3623 C.ar    1  UNL1        0.0585
     14 CL         59.2990   86.3368    7.1827 Cl      1  UNL1       -0.0822
     15 C          59.5375   87.4642    9.5112 C.ar    1  UNL1        0.0228
     16 C          60.3833   87.8425   10.6909 C.ar    1  UNL1        0.0599
     17 CL         59.7760   88.5915   11.8399 Cl      1  UNL1       -0.0822
     18 C          62.6028   90.3390   11.1599 C.3     1  UNL1        0.0965
     19 N          63.5947   91.2836   10.5485 N.3     1  UNL1       -0.3173
     20 H          63.9919   91.8776   11.2764 H       1  UNL1        0.1192
     21 H          63.1267   91.8648    9.8531 H       1  UNL1        0.1192
     22 N          64.4535   86.1179   15.0014 N.pl3   1  UNL1       -0.2738
     23 C          65.6164   85.2392   14.6470 C.3     1  UNL1        0.1151
     24 C          63.7534   85.9414   16.3161 C.3     1  UNL1        0.1257
     25 C          62.4518   85.1985   16.3789 C.3     1  UNL1        0.1637
     26 C          62.4112   83.1832   14.7397 C.3     1  UNL1        0.1742
     27 O          61.9067   84.5352   15.1488 O.3     1  UNL1       -0.3493
@<TRIPOS>BOND
     1    26    27    1
     2    27    25    1
     3    25    24    1
     4    24    22    1
     5    22    23    1
     6    22     1    1
     7     1     2   ar
     8     2     3   ar
     9     3     4    1
    10     3     5   ar
    11     5    18    1
    12    18    19    1
    13     5     6   ar
    14     6    10    1
    15    10    11   ar
    16    11    12   ar
    17    12    13   ar
    18    13    14    1
    19    13    15   ar
    20    15    16   ar
    21    16    17    1
    22     6     7   ar
    23     7     1   ar
    24    16    10   ar
    25     4     8    1
    26     4     9    1
    27    19    20    1
    28    19    21    1
@<TRIPOS>MOLECULE
*****
 27 28 0 0 0
SMALL
GASTEIGER

@<TRIPOS>ATOM
      1 C          63.4195   85.2828   13.6923 C.ar    1  UNL1        0.2214
      2 N          64.0859   86.4921   14.2784 N.ar    1  UNL1       -0.1994
      3 C          63.9059   87.8342   13.6331 C.ar    1  UNL1        0.1270
      4 N          64.5723   89.0436   14.2192 N.pl3   1  UNL1       -0.3427
      5 C          63.0595   87.9670   12.4019 C.ar    1  UNL1        0.0424
      6 C          62.3931   86.7577   11.8159 C.ar    1  UNL1        0.0849
      7 N          62.5731   85.4156   12.4611 N.ar    1  UNL1       -0.2138
      8 H          65.1278   88.9564   15.0273 H       1  UNL1        0.1437
      9 H          64.4542   89.9244   13.7957 H       1  UNL1        0.1437
     10 C          61.5467   86.8905   10.5846 C.ar    1  UNL1        0.0282
     11 C          60.3646   87.8138   10.5831 C.ar    1  UNL1        0.0032
     12 C          59.5182   87.9466    9.3519 C.ar    1  UNL1        0.0115
     13 C          59.8539   87.1560    8.1221 C.ar    1  UNL1        0.0585
     14 CL         59.0075   87.2888    6.8909 Cl      1  UNL1       -0.0822
     15 C          61.0360   86.2327    8.1236 C.ar    1  UNL1        0.0228
     16 C          61.8825   86.0999    9.3549 C.ar    1  UNL1        0.0599
     17 CL         63.0646   85.1766    9.3563 Cl      1  UNL1       -0.0822
     18 C          62.8795   89.3091   11.7567 C.3     1  UNL1        0.0965
     19 N          62.3058   90.4492   12.5447 N.3     1  UNL1       -0.3173
     20 H          61.3358   90.2433   12.7836 H       1  UNL1        0.1192
     21 H          62.3448   91.3020   11.9864 H       1  UNL1        0.1192
     22 N          63.5995   83.9406   14.3376 N.pl3   1  UNL1       -0.2738
     23 C          63.0607   83.6925   15.7153 C.3     1  UNL1        0.1151
     24 C          64.3182   82.8467   13.6051 C.3     1  UNL1        0.1257
     25 C          63.5507   81.8982   12.7325 C.3     1  UNL1        0.1637
     26 C          61.4465   80.8961   13.8806 C.3     1  UNL1        0.1742
     27 O          62.0587   81.8053   12.8567 O.3     1  UNL1       -0.3493
@<TRIPOS>BOND
     1    26    27    1
     2    27    25    1
     3    25    24    1
     4    24    22    1
     5    22    23    1
     6    22     1    1
     7     1     2   ar
     8     2     3   ar
     9     3     4    1
    10     3     5   ar
    11     5    18    1
    12    18    19    1
    13     5     6   ar
    14     6    10    1
    15    10    11   ar
    16    11    12   ar
    17    12    13   ar
    18    13    14    1
    19    13    15   ar
    20    15    16   ar
    21    16    17    1
    22     6     7   ar
    23     7     1   ar
    24    16    10   ar
    25     4     8    1
    26     4     9    1
    27    19    20    1
    28    19    21    1
@<TRIPOS>MOLECULE
*****
 27 28 0 0 0
SMALL
GASTEIGER

@<TRIPOS>ATOM
      1 C          63.6795   86.2182   13.6156 C.ar    1  UNL1        0.2214
      2 N          64.3312   87.3808   14.3037 N.ar    1  UNL1       -0.1994
      3 C          64.1195   88.7729   13.7868 C.ar    1  UNL1        0.1270
      4 N          64.7712   89.9357   14.4750 N.pl3   1  UNL1       -0.3427
      5 C          63.2563   89.0024   12.5818 C.ar    1  UNL1        0.0424
      6 C          62.6046   87.8397   11.8937 C.ar    1  UNL1        0.0849
      7 N          62.8163   86.4476   12.4106 N.ar    1  UNL1       -0.2138
      8 H          65.3378   89.7850   15.2659 H       1  UNL1        0.1437
      9 H          64.6323   90.8494   14.1357 H       1  UNL1        0.1437
     10 C          61.7413   88.0692   10.6886 C.ar    1  UNL1        0.0282
     11 C          60.9055   89.3108   10.5903 C.ar    1  UNL1        0.0032
     12 C          60.0422   89.5403    9.3853 C.ar    1  UNL1        0.0115
     13 C          60.0147   88.5281    8.2786 C.ar    1  UNL1        0.0585
     14 CL         59.1514   88.7575    7.0736 Cl      1  UNL1       -0.0822
     15 C          60.8506   87.2864    8.3769 C.ar    1  UNL1        0.0228
     16 C          61.7139   87.0570    9.5820 C.ar    1  UNL1        0.0599
     17 CL         62.5497   85.8153    9.6804 Cl      1  UNL1       -0.0822
     18 C          63.0446   90.3945   12.0649 C.3     1  UNL1        0.0965
     19 N          64.2118   91.3247   11.9158 N.3     1  UNL1       -0.3173
     20 H          64.5942   91.5408   12.8365 H       1  UNL1        0.1192
     21 H          63.9045   92.1863   11.4646 H       1  UNL1        0.1192
     22 N          63.8912   84.8260   14.1325 N.pl3   1  UNL1       -0.2738
     23 C          64.4015   83.7548   13.2150 C.3     1  UNL1        0.1151
     24 C          63.5924   84.5051   15.5670 C.3     1  UNL1        0.1257
     25 C          62.2761   84.9030   16.1661 C.3     1  UNL1        0.1637
     26 C          62.7142   87.0746   17.5235 C.3     1  UNL1        0.1742
     27 O          62.2392   85.6530   17.4647 O.3     1  UNL1       -0.3493
@<TRIPOS>BOND
     1    26    27    1
     2    27    25    1
     3    25    24    1
     4    24    22    1
     5    22    23    1
     6    22     1    1
     7     1     2   ar
     8     2     3   ar
     9     3     4    1
    10     3     5   ar
    11     5    18    1
    12    18    19    1
    13     5     6   ar
    14     6    10    1
    15    10    11   ar
    16    11    12   ar
    17    12    13   ar
    18    13    14    1
    19    13    15   ar
    20    15    16   ar
    21    16    17    1
    22     6     7   ar
    23     7     1   ar
    24    16    10   ar
    25     4     8    1
    26     4     9    1
    27    19    20    1
    28    19    21    1
@<TRIPOS>MOLECULE
*****
 27 28 0 0 0
SMALL
GASTEIGER

@<TRIPOS>ATOM
      1 C          62.5232   86.2854   12.0756 C.ar    1  UNL1        0.2214
      2 N          61.1665   86.4772   11.4652 N.ar    1  UNL1       -0.1994
      3 C          60.6647   87.8600   11.1719 C.ar    1  UNL1        0.1270
      4 N          59.3080   88.0518   10.5615 N.pl3   1  UNL1       -0.3427
      5 C          61.5196   89.0511   11.4891 C.ar    1  UNL1        0.0424
      6 C          62.8762   88.8593   12.0995 C.ar    1  UNL1        0.0849
      7 N          63.3781   87.4765   12.3928 N.ar    1  UNL1       -0.2138
      8 H          58.7469   87.2700   10.3533 H       1  UNL1        0.1437
      9 H          58.9786   88.9594   10.3690 H       1  UNL1        0.1437
     10 C          63.7312   90.0503   12.4167 C.ar    1  UNL1        0.0282
     11 C          64.0483   91.0523   11.3464 C.ar    1  UNL1        0.0032
     12 C          64.9032   92.2433   11.6635 C.ar    1  UNL1        0.0115
     13 C          65.4410   92.4324   13.0510 C.ar    1  UNL1        0.0585
     14 CL         66.2959   93.6234   13.3681 Cl      1  UNL1       -0.0822
     15 C          65.1238   91.4305   14.1213 C.ar    1  UNL1        0.0228
     16 C          64.2689   90.2394   13.8041 C.ar    1  UNL1        0.0599
     17 CL         63.9518   89.2375   14.8744 Cl      1  UNL1       -0.0822
     18 C          61.0178   90.4339   11.1958 C.3     1  UNL1        0.0965
     19 N          59.6274   90.8281   11.5977 N.3     1  UNL1       -0.3173
     20 H          58.9514   90.2840   11.0616 H       1  UNL1        0.1192
     21 H          59.4885   91.8213   11.4116 H       1  UNL1        0.1192
     22 N          63.0250   84.9026   12.3689 N.pl3   1  UNL1       -0.2738
     23 C          63.6359   84.5938   13.7036 C.3     1  UNL1        0.1151
     24 C          62.9160   83.8286   11.3275 C.3     1  UNL1        0.1257
     25 C          63.4814   84.0532    9.9564 C.3     1  UNL1        0.1637
     26 C          62.8687   84.9516    7.5968 C.3     1  UNL1        0.1742
     27 O          62.9246   85.1390    9.0840 O.3     1  UNL1       -0.3493
@<TRIPOS>BOND
     1    26    27    1
     2    27    25    1
     3    25    24    1
     4    24    22    1
     5    22    23    1
     6    22     1    1
     7     1     2   ar
     8     2     3   ar
     9     3     4    1
    10     3     5   ar
    11     5    18    1
    12    18    19    1
    13     5     6   ar
    14     6    10    1
    15    10    11   ar
    16    11    12   ar
    17    12    13   ar
    18    13    14    1
    19    13    15   ar
    20    15    16   ar
    21    16    17    1
    22     6     7   ar
    23     7     1   ar
    24    16    10   ar
    25     4     8    1
    26     4     9    1
    27    19    20    1
    28    19    21    1
