@<TRIPOS>MOLECULE
*****
 43 45 0 0 0
SMALL
GASTEIGER

@<TRIPOS>ATOM
      1 C          63.9960   90.9993   14.4018 C.3     1  UNL1        0.2120
      2 O          62.7514   90.5804   13.6769 O.3     1  UNL1       -0.3763
      3 H          62.4473   89.7269   14.0233 H       1  UNL1        0.2107
      4 C          65.2406   91.4182   15.1268 C.3     1  UNL1        0.4226
      5 F          66.4852   91.8371   15.8516 F       1  UNL1       -0.1675
      6 F          64.4054   92.1309   16.1487 F       1  UNL1       -0.1675
      7 F          66.0758   90.7055   14.1047 F       1  UNL1       -0.1675
      8 C          64.0548   92.2510   13.5775 C.3     1  UNL1        0.1307
      9 N          64.8801   92.2864   12.3254 N.am    1  UNL1       -0.2733
     10 C          66.0057   93.2694   12.1965 C.2     1  UNL1        0.2503
     11 O          66.3061   94.2172   13.3197 O.2     1  UNL1       -0.2699
     12 C          66.8309   93.3048   10.9444 C.ar    1  UNL1        0.0706
     13 C          67.6987   92.1353   10.5849 C.ar    1  UNL1        0.0058
     14 C          68.5239   92.1707    9.3328 C.ar    1  UNL1        0.0002
     15 C          68.4813   93.3755    8.4401 C.ar    1  UNL1        0.0013
     16 C          67.6134   94.5449    8.7997 C.ar    1  UNL1        0.0185
     17 C          66.7882   94.5095   10.0518 C.ar    1  UNL1        0.1101
     18 S          65.9203   95.6790   10.4114 S.O2    1  UNL1        0.0106
     19 C          65.0525   96.8484   10.7709 C.3     1  UNL1        0.1816
     20 O          67.1294   96.4312   10.8829 O.2     1  UNL1       -0.1686
     21 O          64.7113   94.9267    9.9399 O.2     1  UNL1       -0.1686
     22 C          63.4073   91.5910   10.3012 C.3     1  UNL1        0.0233
     23 C          64.5797   91.3387   11.2022 C.3     1  UNL1        0.0939
     24 C          63.9372   89.7475   15.2262 C.3     1  UNL1        0.1269
     25 N          64.3449   88.4345   14.6262 N.am    1  UNL1       -0.2982
     26 C          63.9477   87.1502   15.2918 C.2     1  UNL1        0.2502
     27 O          63.1429   87.1789   16.5572 O.2     1  UNL1       -0.2700
     28 H          64.8731   88.4157   13.7957 H       1  UNL1        0.1498
     29 C          64.3554   85.8373   14.6918 C.ar    1  UNL1        0.1053
     30 C          65.6168   85.0837   14.9936 C.ar    1  UNL1        0.1278
     31 N          65.6142   83.8281   14.1730 N.ar    1  UNL1       -0.1622
     32 N          64.3512   83.8056   13.3641 N.ar    1  UNL1       -0.2163
     33 C          63.5733   85.0474   13.6847 C.ar    1  UNL1        0.1327
     34 N          62.2462   85.4318   13.1007 N.pl3   1  UNL1       -0.3424
     35 H          61.8092   84.8442   12.4426 H       1  UNL1        0.1437
     36 H          61.8121   86.2716   13.3755 H       1  UNL1        0.1437
     37 C          63.9387   82.7302   12.4031 C.ar    1  UNL1        0.0843
     38 C          63.2433   81.5004   12.9072 C.ar    1  UNL1        0.0215
     39 C          62.8308   80.4251   11.9463 C.ar    1  UNL1        0.0312
     40 C          63.1136   80.5795   10.4813 C.ar    1  UNL1        0.1402
     41 F          62.7010   79.5041    9.5204 F       1  UNL1       -0.2042
     42 C          63.8089   81.8093    9.9772 C.ar    1  UNL1        0.0312
     43 C          64.2214   82.8846   10.9381 C.ar    1  UNL1        0.0215
@<TRIPOS>BOND
     1    22    23    1
     2    23     9    1
     3     9     8    1
     4     8     1    1
     5     1     2    1
     6     1    24    1
     7    24    25    1
     8    25    26   am
     9    26    27    2
    10    26    29    1
    11    29    30   ar
    12    30    31   ar
    13    31    32   ar
    14    32    37    1
    15    37    38   ar
    16    38    39   ar
    17    39    40   ar
    18    40    41    1
    19    40    42   ar
    20    42    43   ar
    21    32    33   ar
    22    33    34    1
    23     1     4    1
    24     4     5    1
    25     4     6    1
    26     4     7    1
    27     9    10   am
    28    10    11    2
    29    10    12    1
    30    12    13   ar
    31    13    14   ar
    32    14    15   ar
    33    15    16   ar
    34    16    17   ar
    35    17    18    1
    36    18    19    1
    37    18    20    2
    38    18    21    2
    39    33    29   ar
    40    17    12   ar
    41    43    37   ar
    42     2     3    1
    43    25    28    1
    44    34    35    1
    45    34    36    1
@<TRIPOS>MOLECULE
*****
 43 45 0 0 0
SMALL
GASTEIGER

@<TRIPOS>ATOM
      1 C          61.8902   87.0349   10.7708 C.3     1  UNL1        0.2120
      2 O          63.1385   86.7386   11.5478 O.3     1  UNL1       -0.3763
      3 H          63.2925   87.4453   12.1941 H       1  UNL1        0.2107
      4 C          60.6418   87.3313    9.9937 C.3     1  UNL1        0.4226
      5 F          59.3935   87.6276    9.2167 F       1  UNL1       -0.1675
      6 F          59.9438   87.7195   11.2634 F       1  UNL1       -0.1675
      7 F          61.3399   86.9430    8.7241 F       1  UNL1       -0.1675
      8 C          62.0789   85.7710    9.9855 C.3     1  UNL1        0.1307
      9 N          62.5533   84.5249   10.6727 N.am    1  UNL1       -0.2733
     10 C          62.1580   84.2555   12.0944 C.2     1  UNL1        0.2503
     11 O          61.2883   85.2322   12.8289 O.2     1  UNL1       -0.2699
     12 C          62.6325   83.0094   12.7815 C.ar    1  UNL1        0.0706
     13 C          62.2368   81.6633   12.2509 C.ar    1  UNL1        0.0058
     14 C          62.7112   80.4172   12.9380 C.ar    1  UNL1        0.0002
     15 C          63.5814   80.5172   14.1558 C.ar    1  UNL1        0.0013
     16 C          63.9771   81.8633   14.6863 C.ar    1  UNL1        0.0185
     17 C          63.5026   83.1094   13.9992 C.ar    1  UNL1        0.1101
     18 S          63.8983   84.4555   14.5298 S.O2    1  UNL1        0.0106
     19 C          64.2940   85.8016   15.0604 C.3     1  UNL1        0.1816
     20 O          62.7001   84.4520   15.4322 O.2     1  UNL1       -0.1686
     21 O          65.0965   84.4590   13.6273 O.2     1  UNL1       -0.1686
     22 C          64.7744   83.1905   10.4821 C.3     1  UNL1        0.0233
     23 C          63.4231   83.5481    9.9381 C.3     1  UNL1        0.0939
     24 C          61.7014   88.2989   11.5561 C.3     1  UNL1        0.1269
     25 N          62.7056   89.4077   11.4454 N.am    1  UNL1       -0.2982
     26 C          63.1362   90.1549   12.6728 C.2     1  UNL1        0.2502
     27 O          62.5625   89.7933   14.0108 O.2     1  UNL1       -0.2700
     28 H          63.0821   89.6450   10.5673 H       1  UNL1        0.1498
     29 C          64.1404   91.2636   12.5621 C.ar    1  UNL1        0.1053
     30 C          64.9529   91.8328   13.6873 C.ar    1  UNL1        0.1278
     31 N          65.8231   92.9188   13.1274 N.ar    1  UNL1       -0.1622
     32 N          65.5484   93.0208   11.6564 N.ar    1  UNL1       -0.2163
     33 C          64.5084   91.9979   11.3070 C.ar    1  UNL1        0.1327
     34 N          63.9368   91.7522    9.9421 N.pl3   1  UNL1       -0.3424
     35 H          64.2438   92.2889    9.1760 H       1  UNL1        0.1437
     36 H          63.2546   91.0544    9.8124 H       1  UNL1        0.1437
     37 C          66.1993   93.9778   10.7021 C.ar    1  UNL1        0.0843
     38 C          67.2002   93.4768    9.7035 C.ar    1  UNL1        0.0215
     39 C          67.8510   94.4338    8.7493 C.ar    1  UNL1        0.0312
     40 C          67.5011   95.8917    8.7937 C.ar    1  UNL1        0.1402
     41 F          68.1520   96.8487    7.8395 F       1  UNL1       -0.2042
     42 C          66.5002   96.3927    9.7924 C.ar    1  UNL1        0.0312
     43 C          65.8493   95.4357   10.7465 C.ar    1  UNL1        0.0215
@<TRIPOS>BOND
     1    22    23    1
     2    23     9    1
     3     9     8    1
     4     8     1    1
     5     1     2    1
     6     1    24    1
     7    24    25    1
     8    25    26   am
     9    26    27    2
    10    26    29    1
    11    29    30   ar
    12    30    31   ar
    13    31    32   ar
    14    32    37    1
    15    37    38   ar
    16    38    39   ar
    17    39    40   ar
    18    40    41    1
    19    40    42   ar
    20    42    43   ar
    21    32    33   ar
    22    33    34    1
    23     1     4    1
    24     4     5    1
    25     4     6    1
    26     4     7    1
    27     9    10   am
    28    10    11    2
    29    10    12    1
    30    12    13   ar
    31    13    14   ar
    32    14    15   ar
    33    15    16   ar
    34    16    17   ar
    35    17    18    1
    36    18    19    1
    37    18    20    2
    38    18    21    2
    39    33    29   ar
    40    17    12   ar
    41    43    37   ar
    42     2     3    1
    43    25    28    1
    44    34    35    1
    45    34    36    1
@<TRIPOS>MOLECULE
*****
 43 45 0 0 0
SMALL
GASTEIGER

@<TRIPOS>ATOM
      1 C          59.4288   93.1568   -0.4810 C.3     1  UNL1        0.2120
      2 O          58.0256   92.7433   -0.1490 O.3     1  UNL1       -0.3763
      3 H          57.8862   92.8119    0.8085 H       1  UNL1        0.2107
      4 C          60.8319   93.5703   -0.8129 C.3     1  UNL1        0.4226
      5 F          62.2350   93.9838   -1.1449 F       1  UNL1       -0.1675
      6 F          61.2025   92.1339   -1.0355 F       1  UNL1       -0.1675
      7 F          60.4613   95.0067   -0.5903 F       1  UNL1       -0.1675
      8 C          59.1613   92.8980   -1.9340 C.3     1  UNL1        0.1307
      9 N          58.2211   93.7866   -2.6934 N.am    1  UNL1       -0.2733
     10 C          56.8380   93.3082   -3.0222 C.2     1  UNL1        0.2503
     11 O          56.3950   91.9412   -2.5917 O.2     1  UNL1       -0.2699
     12 C          55.8978   94.1967   -3.7816 C.ar    1  UNL1        0.0706
     13 C          55.0789   95.2200   -3.0519 C.ar    1  UNL1        0.0058
     14 C          54.1388   96.1085   -3.8112 C.ar    1  UNL1        0.0002
     15 C          54.0175   95.9739   -5.3003 C.ar    1  UNL1        0.0013
     16 C          54.8365   94.9506   -6.0299 C.ar    1  UNL1        0.0185
     17 C          55.7766   94.0621   -5.2706 C.ar    1  UNL1        0.1101
     18 S          56.5956   93.0388   -6.0002 S.O2    1  UNL1        0.0106
     19 C          57.4145   92.0156   -6.7299 C.3     1  UNL1        0.1816
     20 O          55.5220   92.0165   -5.7715 O.2     1  UNL1       -0.1686
     21 O          57.6691   94.0612   -6.2290 O.2     1  UNL1       -0.1686
     22 C          59.9453   95.3215   -3.8854 C.3     1  UNL1        0.0233
     23 C          58.6640   95.1535   -3.1238 C.3     1  UNL1        0.0939
     24 C          59.6963   93.4156    0.9721 C.3     1  UNL1        0.1269
     25 N          59.2459   92.4260    2.0055 N.am    1  UNL1       -0.2982
     26 C          59.3252   92.7744    3.4624 C.2     1  UNL1        0.2502
     27 O          59.8548   94.1124    3.8858 O.2     1  UNL1       -0.2700
     28 H          58.8983   91.5478    1.7276 H       1  UNL1        0.1498
     29 C          58.8748   91.7848    4.4957 C.ar    1  UNL1        0.1053
     30 C          57.4554   91.5158    4.8994 C.ar    1  UNL1        0.1278
     31 N          57.4681   90.4552    5.9600 N.ar    1  UNL1       -0.1622
     32 N          58.8954   90.0687    6.2119 N.ar    1  UNL1       -0.2163
     33 C          59.7648   90.8904    5.3069 C.ar    1  UNL1        0.1327
     34 N          61.2614   90.8286    5.2271 N.pl3   1  UNL1       -0.3424
     35 H          61.7598   90.2054    5.8037 H       1  UNL1        0.1437
     36 H          61.7453   91.4111    4.5980 H       1  UNL1        0.1437
     37 C          59.3701   89.0408    7.1959 C.ar    1  UNL1        0.0843
     38 C          59.0603   87.5901    6.9734 C.ar    1  UNL1        0.0215
     39 C          59.5350   86.5624    7.9574 C.ar    1  UNL1        0.0312
     40 C          60.3193   86.9853    9.1640 C.ar    1  UNL1        0.1402
     41 F          60.7940   85.9575   10.1481 F       1  UNL1       -0.2042
     42 C          60.6291   88.4360    9.3866 C.ar    1  UNL1        0.0312
     43 C          60.1544   89.4637    8.4026 C.ar    1  UNL1        0.0215
@<TRIPOS>BOND
     1    22    23    1
     2    23     9    1
     3     9     8    1
     4     8     1    1
     5     1     2    1
     6     1    24    1
     7    24    25    1
     8    25    26   am
     9    26    27    2
    10    26    29    1
    11    29    30   ar
    12    30    31   ar
    13    31    32   ar
    14    32    37    1
    15    37    38   ar
    16    38    39   ar
    17    39    40   ar
    18    40    41    1
    19    40    42   ar
    20    42    43   ar
    21    32    33   ar
    22    33    34    1
    23     1     4    1
    24     4     5    1
    25     4     6    1
    26     4     7    1
    27     9    10   am
    28    10    11    2
    29    10    12    1
    30    12    13   ar
    31    13    14   ar
    32    14    15   ar
    33    15    16   ar
    34    16    17   ar
    35    17    18    1
    36    18    19    1
    37    18    20    2
    38    18    21    2
    39    33    29   ar
    40    17    12   ar
    41    43    37   ar
    42     2     3    1
    43    25    28    1
    44    34    35    1
    45    34    36    1
@<TRIPOS>MOLECULE
*****
 43 45 0 0 0
SMALL
GASTEIGER

@<TRIPOS>ATOM
      1 C          60.1191   88.8389   10.3093 C.3     1  UNL1        0.2120
      2 O          60.1250   88.5886   11.7883 O.3     1  UNL1       -0.3763
      3 H          60.3206   89.4158   12.2554 H       1  UNL1        0.2107
      4 C          60.1133   89.0892    8.8303 C.3     1  UNL1        0.4226
      5 F          60.1074   89.3395    7.3514 F       1  UNL1       -0.1675
      6 F          61.3708   89.8963    8.9620 F       1  UNL1       -0.1675
      7 F          58.8558   88.2821    8.6987 F       1  UNL1       -0.1675
      8 C          59.8004   87.3936   10.0659 C.3     1  UNL1        0.1307
      9 N          60.9105   86.3992    9.8951 N.am    1  UNL1       -0.2733
     10 C          61.5499   85.7747   11.0997 C.2     1  UNL1        0.2503
     11 O          61.0793   86.1445   12.4752 O.2     1  UNL1       -0.2699
     12 C          62.6599   84.7803   10.9289 C.ar    1  UNL1        0.0706
     13 C          63.1317   84.4119    9.5535 C.ar    1  UNL1        0.0058
     14 C          64.2417   83.4175    9.3826 C.ar    1  UNL1        0.0002
     15 C          64.8799   82.7916   10.5872 C.ar    1  UNL1        0.0013
     16 C          64.4081   83.1601   11.9626 C.ar    1  UNL1        0.0185
     17 C          63.2981   84.1544   12.1334 C.ar    1  UNL1        0.1101
     18 S          62.8263   84.5229   13.5088 S.O2    1  UNL1        0.0106
     19 C          62.3545   84.8914   14.8842 C.3     1  UNL1        0.1816
     20 O          62.0382   83.2485   13.5799 O.2     1  UNL1       -0.1686
     21 O          63.6143   85.7973   13.4377 O.2     1  UNL1       -0.1686
     22 C          60.3847   85.6712    7.4571 C.3     1  UNL1        0.0233
     23 C          61.3810   86.0294    8.5197 C.3     1  UNL1        0.0939
     24 C          60.4379   90.2843   10.5526 C.3     1  UNL1        0.1269
     25 N          61.2944   90.6772   11.7197 N.am    1  UNL1       -0.2982
     26 C          62.5799   89.9511   11.9848 C.2     1  UNL1        0.2502
     27 O          63.0089   88.8319   11.0828 O.2     1  UNL1       -0.2700
     28 H          61.0129   91.4118   12.3117 H       1  UNL1        0.1498
     29 C          63.4364   90.3440   13.1518 C.ar    1  UNL1        0.1053
     30 C          63.2290   89.9269   14.5777 C.ar    1  UNL1        0.1278
     31 N          64.3151   90.5481   15.4050 N.ar    1  UNL1       -0.1622
     32 N          65.1937   91.3492   14.4905 N.ar    1  UNL1       -0.2163
     33 C          64.6506   91.2230   13.0980 C.ar    1  UNL1        0.1327
     34 N          65.2215   91.8635   11.8676 N.pl3   1  UNL1       -0.3424
     35 H          66.0262   92.4268   11.9340 H       1  UNL1        0.1437
     36 H          64.7915   91.7205   10.9935 H       1  UNL1        0.1437
     37 C          66.4031   92.1380   14.8971 C.ar    1  UNL1        0.0843
     38 C          67.5083   91.4744   15.6639 C.ar    1  UNL1        0.0215
     39 C          68.7176   92.2632   16.0704 C.ar    1  UNL1        0.0312
     40 C          68.8217   93.7156   15.7103 C.ar    1  UNL1        0.1402
     41 F          70.0311   94.5044   16.1169 F       1  UNL1       -0.2042
     42 C          67.7164   94.3792   14.9435 C.ar    1  UNL1        0.0312
     43 C          66.5071   93.5904   14.5370 C.ar    1  UNL1        0.0215
@<TRIPOS>BOND
     1    22    23    1
     2    23     9    1
     3     9     8    1
     4     8     1    1
     5     1     2    1
     6     1    24    1
     7    24    25    1
     8    25    26   am
     9    26    27    2
    10    26    29    1
    11    29    30   ar
    12    30    31   ar
    13    31    32   ar
    14    32    37    1
    15    37    38   ar
    16    38    39   ar
    17    39    40   ar
    18    40    41    1
    19    40    42   ar
    20    42    43   ar
    21    32    33   ar
    22    33    34    1
    23     1     4    1
    24     4     5    1
    25     4     6    1
    26     4     7    1
    27     9    10   am
    28    10    11    2
    29    10    12    1
    30    12    13   ar
    31    13    14   ar
    32    14    15   ar
    33    15    16   ar
    34    16    17   ar
    35    17    18    1
    36    18    19    1
    37    18    20    2
    38    18    21    2
    39    33    29   ar
    40    17    12   ar
    41    43    37   ar
    42     2     3    1
    43    25    28    1
    44    34    35    1
    45    34    36    1
@<TRIPOS>MOLECULE
*****
 43 45 0 0 0
SMALL
GASTEIGER

@<TRIPOS>ATOM
      1 C          61.8450   86.9924   10.1346 C.3     1  UNL1        0.2120
      2 O          63.1209   87.0177   10.9230 O.3     1  UNL1       -0.3763
      3 H          63.1211   87.7876   11.5131 H       1  UNL1        0.2107
      4 C          60.5691   86.9671    9.3462 C.3     1  UNL1        0.4226
      5 F          59.2933   86.9418    8.5579 F       1  UNL1       -0.1675
      6 F          59.8278   87.5174   10.5285 F       1  UNL1       -0.1675
      7 F          61.3105   86.4168    8.1641 F       1  UNL1       -0.1675
      8 C          62.2956   85.7387    9.4455 C.3     1  UNL1        0.1307
      9 N          62.6832   84.5362   10.2542 N.am    1  UNL1       -0.2733
     10 C          62.2333   84.4144   11.6800 C.2     1  UNL1        0.2503
     11 O          61.3959   85.4951   12.2971 O.2     1  UNL1       -0.2699
     12 C          62.6209   83.2120   12.4886 C.ar    1  UNL1        0.0706
     13 C          62.2148   81.8409   12.0356 C.ar    1  UNL1        0.0058
     14 C          62.6024   80.6384   12.8443 C.ar    1  UNL1        0.0002
     15 C          63.3961   80.8071   14.1059 C.ar    1  UNL1        0.0013
     16 C          63.8022   82.1782   14.5588 C.ar    1  UNL1        0.0185
     17 C          63.4146   83.3807   13.7502 C.ar    1  UNL1        0.1101
     18 S          63.8206   84.7518   14.2031 S.O2    1  UNL1        0.0106
     19 C          64.2267   86.1229   14.6561 C.3     1  UNL1        0.1816
     20 O          65.0802   84.6456   13.3954 O.2     1  UNL1       -0.1686
     21 O          62.5611   84.8580   15.0108 O.2     1  UNL1       -0.1686
     22 C          64.7806   83.0040   10.3144 C.3     1  UNL1        0.0233
     23 C          63.5207   83.4555    9.6371 C.3     1  UNL1        0.0939
     24 C          61.3943   88.2462   10.8238 C.3     1  UNL1        0.1269
     25 N          62.1418   88.7542   12.0209 N.am    1  UNL1       -0.2982
     26 C          62.9047   90.0430   11.9373 C.2     1  UNL1        0.2502
     27 O          62.9200   90.8238   10.6567 O.2     1  UNL1       -0.2700
     28 H          62.1317   88.2417   12.8614 H       1  UNL1        0.1498
     29 C          63.6522   90.5510   13.1344 C.ar    1  UNL1        0.1053
     30 C          63.2412   90.3828   14.5673 C.ar    1  UNL1        0.1278
     31 N          64.2770   91.0443   15.4273 N.ar    1  UNL1       -0.1622
     32 N          65.3281   91.6213   14.5261 N.ar    1  UNL1       -0.2163
     33 C          64.9419   91.3165   13.1090 C.ar    1  UNL1        0.1327
     34 N          65.7106   91.7083   11.8820 N.pl3   1  UNL1       -0.3424
     35 H          66.5516   92.2128   11.9681 H       1  UNL1        0.1437
     36 H          65.3741   91.4609   10.9905 H       1  UNL1        0.1437
     37 C          66.5507   92.3715   14.9648 C.ar    1  UNL1        0.0843
     38 C          67.6416   91.6588   15.7077 C.ar    1  UNL1        0.0215
     39 C          68.8642   92.4090   16.1464 C.ar    1  UNL1        0.0312
     40 C          68.9958   93.8719   15.8422 C.ar    1  UNL1        0.1402
     41 F          70.2185   94.6221   16.2810 F       1  UNL1       -0.2042
     42 C          67.9049   94.5846   15.0993 C.ar    1  UNL1        0.0312
     43 C          66.6824   93.8344   14.6606 C.ar    1  UNL1        0.0215
@<TRIPOS>BOND
     1    22    23    1
     2    23     9    1
     3     9     8    1
     4     8     1    1
     5     1     2    1
     6     1    24    1
     7    24    25    1
     8    25    26   am
     9    26    27    2
    10    26    29    1
    11    29    30   ar
    12    30    31   ar
    13    31    32   ar
    14    32    37    1
    15    37    38   ar
    16    38    39   ar
    17    39    40   ar
    18    40    41    1
    19    40    42   ar
    20    42    43   ar
    21    32    33   ar
    22    33    34    1
    23     1     4    1
    24     4     5    1
    25     4     6    1
    26     4     7    1
    27     9    10   am
    28    10    11    2
    29    10    12    1
    30    12    13   ar
    31    13    14   ar
    32    14    15   ar
    33    15    16   ar
    34    16    17   ar
    35    17    18    1
    36    18    19    1
    37    18    20    2
    38    18    21    2
    39    33    29   ar
    40    17    12   ar
    41    43    37   ar
    42     2     3    1
    43    25    28    1
    44    34    35    1
    45    34    36    1
@<TRIPOS>MOLECULE
*****
 43 45 0 0 0
SMALL
GASTEIGER

@<TRIPOS>ATOM
      1 C          61.0351   89.1491   10.4690 C.3     1  UNL1        0.2120
      2 O          62.2635   88.4406    9.9800 O.3     1  UNL1       -0.3763
      3 H          62.7665   89.0305    9.3971 H       1  UNL1        0.2107
      4 C          59.8068   89.8577   10.9581 C.3     1  UNL1        0.4226
      5 F          58.5785   90.5662   11.4471 F       1  UNL1       -0.1675
      6 F          59.9039   89.1250   12.2634 F       1  UNL1       -0.1675
      7 F          59.7097   90.5903    9.6528 F       1  UNL1       -0.1675
      8 C          60.6443   87.9311   11.2522 C.3     1  UNL1        0.1307
      9 N          61.2967   86.6118   10.9623 N.am    1  UNL1       -0.2733
     10 C          62.5350   86.2079   11.7061 C.2     1  UNL1        0.2503
     11 O          63.1211   87.1233   12.7399 O.2     1  UNL1       -0.2699
     12 C          63.1874   84.8887   11.4162 C.ar    1  UNL1        0.0706
     13 C          63.4194   84.4626    9.9968 C.ar    1  UNL1        0.0058
     14 C          64.0717   83.1433    9.7068 C.ar    1  UNL1        0.0002
     15 C          64.4921   82.2502   10.8363 C.ar    1  UNL1        0.0013
     16 C          64.2601   82.6764   12.2557 C.ar    1  UNL1        0.0185
     17 C          63.6078   83.9956   12.5456 C.ar    1  UNL1        0.1101
     18 S          63.3758   84.4217   13.9650 S.O2    1  UNL1        0.0106
     19 C          63.1438   84.8479   15.3844 C.3     1  UNL1        0.1816
     20 O          61.9557   83.9471   13.8754 O.2     1  UNL1       -0.1686
     21 O          64.7959   84.8964   14.0546 O.2     1  UNL1       -0.1686
     22 C          60.3829   86.2207    8.5618 C.3     1  UNL1        0.0233
     23 C          60.7107   85.6964    9.9285 C.3     1  UNL1        0.0939
     24 C          61.4260   90.3673    9.6859 C.3     1  UNL1        0.1269
     25 N          62.7137   91.0735    9.9905 N.am    1  UNL1       -0.2982
     26 C          63.2508   91.0830   11.3910 C.2     1  UNL1        0.2502
     27 O          62.5001   90.3862   12.4869 O.2     1  UNL1       -0.2700
     28 H          63.2065   91.5308    9.2713 H       1  UNL1        0.1498
     29 C          64.5386   91.7892   11.6957 C.ar    1  UNL1        0.1053
     30 C          65.3121   92.6595   10.7499 C.ar    1  UNL1        0.1278
     31 N          66.5306   93.1573   11.4693 N.ar    1  UNL1       -0.1622
     32 N          66.5101   92.5947   12.8597 N.ar    1  UNL1       -0.2163
     33 C          65.2791   91.7492   12.9996 C.ar    1  UNL1        0.1327
     34 N          64.8617   90.9960   14.2277 N.pl3   1  UNL1       -0.3424
     35 H          65.4173   91.0317   15.0397 H       1  UNL1        0.1437
     36 H          64.0321   90.4658   14.2219 H       1  UNL1        0.1437
     37 C          67.5400   92.8354   13.9234 C.ar    1  UNL1        0.0843
     38 C          68.8516   92.1093   13.8755 C.ar    1  UNL1        0.0215
     39 C          69.8814   92.3500   14.9392 C.ar    1  UNL1        0.0312
     40 C          69.5996   93.3168   16.0509 C.ar    1  UNL1        0.1402
     41 F          70.6294   93.5575   17.1147 F       1  UNL1       -0.2042
     42 C          68.2880   94.0429   16.0988 C.ar    1  UNL1        0.0312
     43 C          67.2582   93.8022   15.0351 C.ar    1  UNL1        0.0215
@<TRIPOS>BOND
     1    22    23    1
     2    23     9    1
     3     9     8    1
     4     8     1    1
     5     1     2    1
     6     1    24    1
     7    24    25    1
     8    25    26   am
     9    26    27    2
    10    26    29    1
    11    29    30   ar
    12    30    31   ar
    13    31    32   ar
    14    32    37    1
    15    37    38   ar
    16    38    39   ar
    17    39    40   ar
    18    40    41    1
    19    40    42   ar
    20    42    43   ar
    21    32    33   ar
    22    33    34    1
    23     1     4    1
    24     4     5    1
    25     4     6    1
    26     4     7    1
    27     9    10   am
    28    10    11    2
    29    10    12    1
    30    12    13   ar
    31    13    14   ar
    32    14    15   ar
    33    15    16   ar
    34    16    17   ar
    35    17    18    1
    36    18    19    1
    37    18    20    2
    38    18    21    2
    39    33    29   ar
    40    17    12   ar
    41    43    37   ar
    42     2     3    1
    43    25    28    1
    44    34    35    1
    45    34    36    1
@<TRIPOS>MOLECULE
*****
 43 45 0 0 0
SMALL
GASTEIGER

@<TRIPOS>ATOM
      1 C          61.7374   87.1904   10.4058 C.3     1  UNL1        0.2120
      2 O          63.0347   87.0614   11.1479 O.3     1  UNL1       -0.3763
      3 H          63.1254   87.7991   11.7712 H       1  UNL1        0.2107
      4 C          60.4402   87.3195    9.6638 C.3     1  UNL1        0.4226
      5 F          59.1431   87.4485    8.9218 F       1  UNL1       -0.1675
      6 F          61.1131   86.8537    8.4067 F       1  UNL1       -0.1675
      7 F          59.7674   87.7853   10.9209 F       1  UNL1       -0.1675
      8 C          62.0472   85.9349    9.6459 C.3     1  UNL1        0.1307
      9 N          62.5198   84.7131   10.3768 N.am    1  UNL1       -0.2733
     10 C          62.1442   84.5069   11.8143 C.2     1  UNL1        0.2503
     11 O          61.2960   85.5225   12.5210 O.2     1  UNL1       -0.2699
     12 C          62.6167   83.2852   12.5451 C.ar    1  UNL1        0.0706
     13 C          62.2385   81.9212   12.0488 C.ar    1  UNL1        0.0058
     14 C          62.7111   80.6994   12.7796 C.ar    1  UNL1        0.0002
     15 C          63.5619   80.8417   14.0068 C.ar    1  UNL1        0.0013
     16 C          63.9400   82.2058   14.5031 C.ar    1  UNL1        0.0185
     17 C          63.4674   83.4276   13.7723 C.ar    1  UNL1        0.1101
     18 S          63.8456   84.7916   14.2687 S.O2    1  UNL1        0.0106
     19 C          64.2238   86.1557   14.7650 C.3     1  UNL1        0.1816
     20 O          62.6078   84.8267   15.1152 O.2     1  UNL1       -0.1686
     21 O          65.0834   84.7565   13.4221 O.2     1  UNL1       -0.1686
     22 C          64.6753   83.2670   10.2661 C.3     1  UNL1        0.0233
     23 C          63.3679   83.6976    9.6702 C.3     1  UNL1        0.0939
     24 C          61.4277   88.4460   11.1658 C.3     1  UNL1        0.1269
     25 N          62.5432   89.3242   11.6499 N.am    1  UNL1       -0.2982
     26 C          62.9572   90.5218   10.8473 C.2     1  UNL1        0.2502
     27 O          62.2558   90.8413    9.5605 O.2     1  UNL1       -0.2700
     28 H          63.0036   89.1146   12.4945 H       1  UNL1        0.1498
     29 C          64.0727   91.4000   11.3314 C.ar    1  UNL1        0.1053
     30 C          64.5988   92.6209   10.6366 C.ar    1  UNL1        0.1278
     31 N          65.7092   93.1870   11.4712 N.ar    1  UNL1       -0.1622
     32 N          65.8695   92.3159   12.6818 N.ar    1  UNL1       -0.2163
     33 C          64.8581   91.2116   12.5954 C.ar    1  UNL1        0.1327
     34 N          64.6658   90.1118   13.5971 N.pl3   1  UNL1       -0.3424
     35 H          65.2339   90.0726   14.4003 H       1  UNL1        0.1437
     36 H          63.9715   89.4291   13.4515 H       1  UNL1        0.1437
     37 C          66.8662   92.5144   13.7851 C.ar    1  UNL1        0.0843
     38 C          66.4131   93.0175   15.1236 C.ar    1  UNL1        0.0215
     39 C          67.4098   93.2160   16.2268 C.ar    1  UNL1        0.0312
     40 C          68.8596   92.9113   15.9916 C.ar    1  UNL1        0.1402
     41 F          69.8563   93.1098   17.0949 F       1  UNL1       -0.2042
     42 C          69.3127   92.4082   14.6531 C.ar    1  UNL1        0.0312
     43 C          68.3160   92.2097   13.5499 C.ar    1  UNL1        0.0215
@<TRIPOS>BOND
     1    22    23    1
     2    23     9    1
     3     9     8    1
     4     8     1    1
     5     1     2    1
     6     1    24    1
     7    24    25    1
     8    25    26   am
     9    26    27    2
    10    26    29    1
    11    29    30   ar
    12    30    31   ar
    13    31    32   ar
    14    32    37    1
    15    37    38   ar
    16    38    39   ar
    17    39    40   ar
    18    40    41    1
    19    40    42   ar
    20    42    43   ar
    21    32    33   ar
    22    33    34    1
    23     1     4    1
    24     4     5    1
    25     4     6    1
    26     4     7    1
    27     9    10   am
    28    10    11    2
    29    10    12    1
    30    12    13   ar
    31    13    14   ar
    32    14    15   ar
    33    15    16   ar
    34    16    17   ar
    35    17    18    1
    36    18    19    1
    37    18    20    2
    38    18    21    2
    39    33    29   ar
    40    17    12   ar
    41    43    37   ar
    42     2     3    1
    43    25    28    1
    44    34    35    1
    45    34    36    1
@<TRIPOS>MOLECULE
*****
 43 45 0 0 0
SMALL
GASTEIGER

@<TRIPOS>ATOM
      1 C          60.8378   88.1029    8.9964 C.3     1  UNL1        0.2120
      2 O          62.1184   87.8907    9.7483 O.3     1  UNL1       -0.3763
      3 H          62.3361   88.6926   10.2488 H       1  UNL1        0.2107
      4 C          59.5572   88.3150    8.2446 C.3     1  UNL1        0.4226
      5 F          58.2768   88.5271    7.4929 F       1  UNL1       -0.1675
      6 F          60.1571   89.5069    7.5594 F       1  UNL1       -0.1675
      7 F          58.9574   87.1231    8.9299 F       1  UNL1       -0.1675
      8 C          60.9334   86.7127    8.4413 C.3     1  UNL1        0.1307
      9 N          61.9005   85.7324    9.0362 N.am    1  UNL1       -0.2733
     10 C          61.8542   85.4303   10.5047 C.2     1  UNL1        0.2503
     11 O          60.8408   86.1084   11.3784 O.2     1  UNL1       -0.2699
     12 C          62.8213   84.4500   11.0996 C.ar    1  UNL1        0.0706
     13 C          63.0978   83.1515   10.4014 C.ar    1  UNL1        0.0058
     14 C          64.0649   82.1712   10.9962 C.ar    1  UNL1        0.0002
     15 C          64.7555   82.4895   12.2893 C.ar    1  UNL1        0.0013
     16 C          64.4789   83.7880   12.9874 C.ar    1  UNL1        0.0185
     17 C          63.5118   84.7683   12.3925 C.ar    1  UNL1        0.1101
     18 S          63.2353   86.0668   13.0907 S.O2    1  UNL1        0.0106
     19 C          62.9588   87.3653   13.7888 C.3     1  UNL1        0.1816
     20 O          63.5875   86.8147   11.8391 O.2     1  UNL1       -0.1686
     21 O          62.8830   85.3189   14.3423 O.2     1  UNL1       -0.1686
     22 C          62.5564   84.6722    6.7568 C.3     1  UNL1        0.0233
     23 C          62.9139   85.0543    8.1626 C.3     1  UNL1        0.0939
     24 C          60.7422   89.4931    9.5516 C.3     1  UNL1        0.1269
     25 N          61.9907   90.2647    9.8608 N.am    1  UNL1       -0.2982
     26 C          62.4271   90.4463   11.2844 C.2     1  UNL1        0.2502
     27 O          61.6150   89.8561   12.3989 O.2     1  UNL1       -0.2700
     28 H          62.5238   90.6521    9.1293 H       1  UNL1        0.1498
     29 C          63.6757   91.2179   11.5935 C.ar    1  UNL1        0.1053
     30 C          64.3487   92.2059   10.6873 C.ar    1  UNL1        0.1278
     31 N          65.5594   92.7357   11.3969 N.ar    1  UNL1       -0.1622
     32 N          65.6347   92.0753   12.7415 N.ar    1  UNL1       -0.2163
     33 C          64.4705   91.1372   12.8630 C.ar    1  UNL1        0.1327
     34 N          64.1563   90.2706   14.0463 N.pl3   1  UNL1       -0.3424
     35 H          64.7413   90.2874   14.8380 H       1  UNL1        0.1437
     36 H          63.3650   89.6851   14.0314 H       1  UNL1        0.1437
     37 C          66.6891   92.3113   13.7820 C.ar    1  UNL1        0.0843
     38 C          68.1221   91.9818   13.4859 C.ar    1  UNL1        0.0215
     39 C          69.1764   92.2179   14.5264 C.ar    1  UNL1        0.0312
     40 C          68.7977   92.7835   15.8630 C.ar    1  UNL1        0.1402
     41 F          69.8521   93.0196   16.9035 F       1  UNL1       -0.2042
     42 C          67.3646   93.1131   16.1592 C.ar    1  UNL1        0.0312
     43 C          66.3103   92.8770   15.1187 C.ar    1  UNL1        0.0215
@<TRIPOS>BOND
     1    22    23    1
     2    23     9    1
     3     9     8    1
     4     8     1    1
     5     1     2    1
     6     1    24    1
     7    24    25    1
     8    25    26   am
     9    26    27    2
    10    26    29    1
    11    29    30   ar
    12    30    31   ar
    13    31    32   ar
    14    32    37    1
    15    37    38   ar
    16    38    39   ar
    17    39    40   ar
    18    40    41    1
    19    40    42   ar
    20    42    43   ar
    21    32    33   ar
    22    33    34    1
    23     1     4    1
    24     4     5    1
    25     4     6    1
    26     4     7    1
    27     9    10   am
    28    10    11    2
    29    10    12    1
    30    12    13   ar
    31    13    14   ar
    32    14    15   ar
    33    15    16   ar
    34    16    17   ar
    35    17    18    1
    36    18    19    1
    37    18    20    2
    38    18    21    2
    39    33    29   ar
    40    17    12   ar
    41    43    37   ar
    42     2     3    1
    43    25    28    1
    44    34    35    1
    45    34    36    1
@<TRIPOS>MOLECULE
*****
 43 45 0 0 0
SMALL
GASTEIGER

@<TRIPOS>ATOM
      1 C          61.2199   88.2291    9.7751 C.3     1  UNL1        0.2120
      2 O          61.1329   87.4033    8.5260 O.3     1  UNL1       -0.3763
      3 H          60.3101   87.6123    8.0568 H       1  UNL1        0.2107
      4 C          61.3069   89.0550   11.0243 C.3     1  UNL1        0.4226
      5 F          61.3939   89.8809   12.2734 F       1  UNL1       -0.1675
      6 F          62.6274   89.6028   10.5700 F       1  UNL1       -0.1675
      7 F          59.9865   88.5072   11.4785 F       1  UNL1       -0.1675
      8 C          62.5387   87.5943   10.1030 C.3     1  UNL1        0.1307
      9 N          62.5983   86.1466   10.4911 N.am    1  UNL1       -0.2733
     10 C          62.9298   85.7615   11.9024 C.2     1  UNL1        0.2503
     11 O          63.2017   86.8241   12.9257 O.2     1  UNL1       -0.2699
     12 C          62.9894   84.3138   12.2905 C.ar    1  UNL1        0.0706
     13 C          62.7073   83.2514   11.2698 C.ar    1  UNL1        0.0058
     14 C          62.7669   81.8037   11.6579 C.ar    1  UNL1        0.0002
     15 C          63.1086   81.4183   13.0667 C.ar    1  UNL1        0.0013
     16 C          63.3907   82.4807   14.0874 C.ar    1  UNL1        0.0185
     17 C          63.3311   83.9284   13.6993 C.ar    1  UNL1        0.1101
     18 S          63.6132   84.9908   14.7200 S.O2    1  UNL1        0.0106
     19 C          63.8953   86.0531   15.7408 C.3     1  UNL1        0.1816
     20 O          62.1619   85.0126   15.0984 O.2     1  UNL1       -0.1686
     21 O          65.0645   84.9689   14.3416 O.2     1  UNL1       -0.1686
     22 C          63.1007   85.0640    8.1834 C.3     1  UNL1        0.0233
     23 C          62.3264   85.0840    9.4679 C.3     1  UNL1        0.0939
     24 C          59.9010   88.8640    9.4472 C.3     1  UNL1        0.1269
     25 N          59.8030   89.8515    8.3224 N.am    1  UNL1       -0.2982
     26 C          59.1422   89.4582    7.0345 C.2     1  UNL1        0.2502
     27 O          58.5794   88.0774    6.8714 O.2     1  UNL1       -0.2700
     28 H          60.1724   90.7578    8.4294 H       1  UNL1        0.1498
     29 C          59.0442   90.4457    5.9097 C.ar    1  UNL1        0.1053
     30 C          57.7842   91.0826    5.4028 C.ar    1  UNL1        0.1278
     31 N          58.1502   92.0002    4.2741 N.ar    1  UNL1       -0.1622
     32 N          59.6364   91.9304    4.0834 N.ar    1  UNL1       -0.2163
     33 C          60.1889   90.9697    5.0942 C.ar    1  UNL1        0.1327
     34 N          61.6326   90.5982    5.2604 N.pl3   1  UNL1       -0.3424
     35 H          62.3144   90.9978    4.6734 H       1  UNL1        0.1437
     36 H          61.8983   89.9547    5.9565 H       1  UNL1        0.1437
     37 C          60.4307   92.6883    3.0612 C.ar    1  UNL1        0.0843
     38 C          61.8843   92.3777    2.8598 C.ar    1  UNL1        0.0215
     39 C          62.6785   93.1356    1.8377 C.ar    1  UNL1        0.0312
     40 C          62.0192   94.2041    1.0170 C.ar    1  UNL1        0.1402
     41 F          62.8135   94.9620   -0.0051 F       1  UNL1       -0.2042
     42 C          60.5656   94.5148    1.2184 C.ar    1  UNL1        0.0312
     43 C          59.7714   93.7569    2.2406 C.ar    1  UNL1        0.0215
@<TRIPOS>BOND
     1    22    23    1
     2    23     9    1
     3     9     8    1
     4     8     1    1
     5     1     2    1
     6     1    24    1
     7    24    25    1
     8    25    26   am
     9    26    27    2
    10    26    29    1
    11    29    30   ar
    12    30    31   ar
    13    31    32   ar
    14    32    37    1
    15    37    38   ar
    16    38    39   ar
    17    39    40   ar
    18    40    41    1
    19    40    42   ar
    20    42    43   ar
    21    32    33   ar
    22    33    34    1
    23     1     4    1
    24     4     5    1
    25     4     6    1
    26     4     7    1
    27     9    10   am
    28    10    11    2
    29    10    12    1
    30    12    13   ar
    31    13    14   ar
    32    14    15   ar
    33    15    16   ar
    34    16    17   ar
    35    17    18    1
    36    18    19    1
    37    18    20    2
    38    18    21    2
    39    33    29   ar
    40    17    12   ar
    41    43    37   ar
    42     2     3    1
    43    25    28    1
    44    34    35    1
    45    34    36    1
