@<TRIPOS>MOLECULE
*****
 24 25 0 0 0
SMALL
GASTEIGER

@<TRIPOS>ATOM
      1 C          65.2861   92.2834   11.4510 C.ar    1  UNL1        0.0695
      2 C          64.0629   91.6814   10.8253 C.ar    1  UNL1        0.0779
      3 C          63.0298   91.0171   11.6862 C.ar    1  UNL1        0.2606
      4 O          61.8066   90.4151   11.0605 O.2     1  UNL1       -0.2671
      5 N          63.2198   90.9547   13.1729 N.ar    1  UNL1       -0.3021
      6 C          64.4429   91.5567   13.7986 C.ar    1  UNL1        0.1621
      7 S          64.6329   91.4944   15.2851 S.2     1  UNL1       -0.0128
      8 N          65.4761   92.2211   12.9376 N.ar    1  UNL1       -0.2997
      9 H          62.5416   90.5187   13.7379 H       1  UNL1        0.1708
     10 C          66.3395   94.4420   10.4606 C.ar    1  UNL1        0.1401
     11 C          67.3727   95.1063    9.5996 C.ar    1  UNL1        0.0378
     12 C          68.3856   94.2763    8.8681 C.ar    1  UNL1        0.0145
     13 C          68.3654   92.7821    8.9975 C.ar    1  UNL1        0.0579
     14 CL         69.3783   91.9521    8.2660 Cl      1  UNL1       -0.0822
     15 C          67.3322   92.1178    9.8585 C.ar    1  UNL1        0.0159
     16 C          66.3193   92.9478   10.5900 C.ar    1  UNL1        0.0508
     17 C          65.4488   96.7669   11.2030 C.3     1  UNL1        0.2525
     18 O          65.3266   95.2720   11.1921 O.3     1  UNL1       -0.4714
     19 C          66.6993   92.8230   13.5632 C.3     1  UNL1        0.1929
     20 C          67.9085   91.9721   13.8162 C.2     1  UNL1        0.2425
     21 N          68.1939   91.4667   15.1993 N.am    1  UNL1       -0.3272
     22 O          68.8321   91.6266   12.6859 O.2     1  UNL1       -0.2732
     23 H          67.5876   91.6935   15.9411 H       1  UNL1        0.1450
     24 H          68.9875   90.9082   15.3653 H       1  UNL1        0.1450
@<TRIPOS>BOND
     1    17    18    1
     2    18    10    1
     3    10    11   ar
     4    11    12   ar
     5    12    13   ar
     6    13    14    1
     7    13    15   ar
     8    15    16   ar
     9    16     1    1
    10     1     2   ar
    11     2     3   ar
    12     3     4    2
    13     3     5   ar
    14     5     6   ar
    15     6     7    2
    16     6     8   ar
    17     8    19    1
    18    19    20    1
    19    20    21   am
    20    20    22    2
    21    16    10   ar
    22     8     1   ar
    23     5     9    1
    24    21    23    1
    25    21    24    1
@<TRIPOS>MOLECULE
*****
 24 25 0 0 0
SMALL
GASTEIGER

@<TRIPOS>ATOM
      1 C          62.7219   86.5000   11.7828 C.ar    1  UNL1        0.0695
      2 C          63.1945   87.8292   12.2926 C.ar    1  UNL1        0.0779
      3 C          63.9329   87.9133   13.5955 C.ar    1  UNL1        0.2606
      4 O          64.4055   89.2425   14.1053 O.2     1  UNL1       -0.2671
      5 N          64.1989   86.6682   14.3887 N.ar    1  UNL1       -0.3021
      6 C          63.7263   85.3390   13.8789 C.ar    1  UNL1        0.1621
      7 S          63.9922   84.0939   14.6719 S.2     1  UNL1       -0.0128
      8 N          62.9878   85.2549   12.5759 N.ar    1  UNL1       -0.2997
      9 H          64.6836   86.7234   15.2438 H       1  UNL1        0.1708
     10 C          60.6488   87.0839   10.3297 C.ar    1  UNL1        0.1401
     11 C          59.9104   86.9998    9.0268 C.ar    1  UNL1        0.0378
     12 C          60.5066   86.2478    7.8740 C.ar    1  UNL1        0.0145
     13 C          61.8412   85.5798    8.0241 C.ar    1  UNL1        0.0579
     14 CL         62.4374   84.8277    6.8713 Cl      1  UNL1       -0.0822
     15 C          62.5796   85.6639    9.3270 C.ar    1  UNL1        0.0159
     16 C          61.9834   86.4160   10.4798 C.ar    1  UNL1        0.0508
     17 C          59.9077   89.3272   11.4107 C.3     1  UNL1        0.2525
     18 O          60.0526   87.8360   11.4825 O.3     1  UNL1       -0.4714
     19 C          62.5152   83.9257   12.0661 C.3     1  UNL1        0.1929
     20 C          63.5097   82.9073   11.5928 C.2     1  UNL1        0.2425
     21 N          63.2251   81.4447   11.7652 N.am    1  UNL1       -0.3272
     22 O          64.7887   83.3515   10.9473 O.2     1  UNL1       -0.2732
     23 H          62.3856   81.1531   12.1889 H       1  UNL1        0.1450
     24 H          63.8778   80.7763   11.4546 H       1  UNL1        0.1450
@<TRIPOS>BOND
     1    17    18    1
     2    18    10    1
     3    10    11   ar
     4    11    12   ar
     5    12    13   ar
     6    13    14    1
     7    13    15   ar
     8    15    16   ar
     9    16     1    1
    10     1     2   ar
    11     2     3   ar
    12     3     4    2
    13     3     5   ar
    14     5     6   ar
    15     6     7    2
    16     6     8   ar
    17     8    19    1
    18    19    20    1
    19    20    21   am
    20    20    22    2
    21    16    10   ar
    22     8     1   ar
    23     5     9    1
    24    21    23    1
    25    21    24    1
@<TRIPOS>MOLECULE
*****
 24 25 0 0 0
SMALL
GASTEIGER

@<TRIPOS>ATOM
      1 C          62.2137   87.8673   11.2695 C.ar    1  UNL1        0.0695
      2 C          63.2803   88.6333   11.9944 C.ar    1  UNL1        0.0779
      3 C          62.9788   89.9918   12.5543 C.ar    1  UNL1        0.2606
      4 O          64.0455   90.7578   13.2792 O.2     1  UNL1       -0.2671
      5 N          61.6107   90.5844   12.3894 N.ar    1  UNL1       -0.3021
      6 C          60.5441   89.8183   11.6645 C.ar    1  UNL1        0.1621
      7 S          59.1760   90.4108   11.4995 S.2     1  UNL1       -0.0128
      8 N          60.8456   88.4598   11.1045 N.ar    1  UNL1       -0.2997
      9 H          61.4128   91.4760   12.7569 H       1  UNL1        0.1708
     10 C          62.7422   85.3498   11.6343 C.ar    1  UNL1        0.1401
     11 C          63.0437   83.9914   11.0743 C.ar    1  UNL1        0.0378
     12 C          63.1182   83.7918    9.5895 C.ar    1  UNL1        0.0145
     13 C          62.8912   84.9507    8.6647 C.ar    1  UNL1        0.0579
     14 CL         62.9656   84.7512    7.1799 Cl      1  UNL1       -0.0822
     15 C          62.5897   86.3092    9.2247 C.ar    1  UNL1        0.0159
     16 C          62.5152   86.5087   10.7095 C.ar    1  UNL1        0.0508
     17 C          63.8712   85.2809   13.9732 C.3     1  UNL1        0.2525
     18 O          62.6677   85.5494   13.1191 O.3     1  UNL1       -0.4714
     19 C          59.7789   87.6937   10.3796 C.3     1  UNL1        0.1929
     20 C          59.6336   87.8341    8.8932 C.2     1  UNL1        0.2425
     21 N          59.0172   86.7260    8.0919 N.am    1  UNL1       -0.3272
     22 O          60.1046   89.0827    8.2082 O.2     1  UNL1       -0.2732
     23 H          58.7081   85.9065    8.5416 H       1  UNL1        0.1450
     24 H          58.9218   86.8181    7.1164 H       1  UNL1        0.1450
@<TRIPOS>BOND
     1    17    18    1
     2    18    10    1
     3    10    11   ar
     4    11    12   ar
     5    12    13   ar
     6    13    14    1
     7    13    15   ar
     8    15    16   ar
     9    16     1    1
    10     1     2   ar
    11     2     3   ar
    12     3     4    2
    13     3     5   ar
    14     5     6   ar
    15     6     7    2
    16     6     8   ar
    17     8    19    1
    18    19    20    1
    19    20    21   am
    20    20    22    2
    21    16    10   ar
    22     8     1   ar
    23     5     9    1
    24    21    23    1
    25    21    24    1
@<TRIPOS>MOLECULE
*****
 24 25 0 0 0
SMALL
GASTEIGER

@<TRIPOS>ATOM
      1 C          62.8933   86.1176   12.4113 C.ar    1  UNL1        0.0695
      2 C          63.7359   86.9012   13.3736 C.ar    1  UNL1        0.0779
      3 C          63.7747   88.3983   13.2895 C.ar    1  UNL1        0.2606
      4 O          64.6173   89.1820   14.2518 O.2     1  UNL1       -0.2671
      5 N          62.9710   89.1119   12.2431 N.ar    1  UNL1       -0.3021
      6 C          62.1285   88.3283   11.2808 C.ar    1  UNL1        0.1621
      7 S          61.3248   89.0417   10.2344 S.2     1  UNL1       -0.0128
      8 N          62.0896   86.8311   11.3649 N.ar    1  UNL1       -0.2997
      9 H          62.9965   90.0945   12.1879 H       1  UNL1        0.1708
     10 C          62.3423   83.9520   13.7367 C.ar    1  UNL1        0.1401
     11 C          62.3035   82.4549   13.8208 C.ar    1  UNL1        0.0378
     12 C          62.7769   81.6262   12.6636 C.ar    1  UNL1        0.0145
     13 C          63.2892   82.2946   11.4223 C.ar    1  UNL1        0.0579
     14 CL         63.7626   81.4659   10.2651 Cl      1  UNL1       -0.0822
     15 C          63.3280   83.7917   11.3382 C.ar    1  UNL1        0.0159
     16 C          62.8545   84.6204   12.4954 C.ar    1  UNL1        0.0508
     17 C          62.6372   84.7784   16.1821 C.3     1  UNL1        0.2525
     18 O          61.8688   84.7807   14.8939 O.3     1  UNL1       -0.4714
     19 C          61.2471   86.0474   10.4026 C.3     1  UNL1        0.1929
     20 C          61.6143   86.0022    8.9489 C.2     1  UNL1        0.2425
     21 N          60.5464   86.1172    7.9017 N.am    1  UNL1       -0.3272
     22 O          63.0492   85.8421    8.5424 O.2     1  UNL1       -0.2732
     23 H          59.6046   86.2223    8.1685 H       1  UNL1        0.1450
     24 H          60.7874   86.0875    6.9476 H       1  UNL1        0.1450
@<TRIPOS>BOND
     1    17    18    1
     2    18    10    1
     3    10    11   ar
     4    11    12   ar
     5    12    13   ar
     6    13    14    1
     7    13    15   ar
     8    15    16   ar
     9    16     1    1
    10     1     2   ar
    11     2     3   ar
    12     3     4    2
    13     3     5   ar
    14     5     6   ar
    15     6     7    2
    16     6     8   ar
    17     8    19    1
    18    19    20    1
    19    20    21   am
    20    20    22    2
    21    16    10   ar
    22     8     1   ar
    23     5     9    1
    24    21    23    1
    25    21    24    1
@<TRIPOS>MOLECULE
*****
 24 25 0 0 0
SMALL
GASTEIGER

@<TRIPOS>ATOM
      1 C          63.9665   88.2947   13.8755 C.ar    1  UNL1        0.0695
      2 C          64.3621   86.9997   14.5210 C.ar    1  UNL1        0.0779
      3 C          63.9900   85.6967   13.8779 C.ar    1  UNL1        0.2606
      4 O          64.3855   84.4018   14.5234 O.2     1  UNL1       -0.2671
      5 N          63.2222   85.6886   12.5892 N.ar    1  UNL1       -0.3021
      6 C          62.8266   86.9836   11.9438 C.ar    1  UNL1        0.1621
      7 S          62.0588   86.9755   10.6552 S.2     1  UNL1       -0.0128
      8 N          63.1988   88.2866   12.5869 N.ar    1  UNL1       -0.2997
      9 H          62.9779   84.8334   12.1672 H       1  UNL1        0.1708
     10 C          63.6170   90.0597   15.7497 C.ar    1  UNL1        0.1401
     11 C          63.9892   91.3627   16.3928 C.ar    1  UNL1        0.0378
     12 C          65.0832   92.2037   15.8049 C.ar    1  UNL1        0.0145
     13 C          65.8050   91.7418   14.5738 C.ar    1  UNL1        0.0579
     14 CL         66.8991   92.5828   13.9858 Cl      1  UNL1       -0.0822
     15 C          65.4328   90.4388   13.9307 C.ar    1  UNL1        0.0159
     16 C          64.3388   89.5977   14.5187 C.ar    1  UNL1        0.0508
     17 C          62.8525   88.1544   17.3421 C.3     1  UNL1        0.2525
     18 O          62.5229   89.2186   16.3377 O.3     1  UNL1       -0.4714
     19 C          62.8032   89.5816   11.9415 C.3     1  UNL1        0.1929
     20 C          61.3528   89.9387   11.8039 C.2     1  UNL1        0.2425
     21 N          60.4095   89.6972   12.9448 N.am    1  UNL1       -0.3272
     22 O          60.8458   90.5372   10.5253 O.2     1  UNL1       -0.2732
     23 H          60.7422   89.3043   13.7840 H       1  UNL1        0.1450
     24 H          59.4575   89.9315   12.8545 H       1  UNL1        0.1450
@<TRIPOS>BOND
     1    17    18    1
     2    18    10    1
     3    10    11   ar
     4    11    12   ar
     5    12    13   ar
     6    13    14    1
     7    13    15   ar
     8    15    16   ar
     9    16     1    1
    10     1     2   ar
    11     2     3   ar
    12     3     4    2
    13     3     5   ar
    14     5     6   ar
    15     6     7    2
    16     6     8   ar
    17     8    19    1
    18    19    20    1
    19    20    21   am
    20    20    22    2
    21    16    10   ar
    22     8     1   ar
    23     5     9    1
    24    21    23    1
    25    21    24    1
@<TRIPOS>MOLECULE
*****
 24 25 0 0 0
SMALL
GASTEIGER

@<TRIPOS>ATOM
      1 C          62.5862   86.3271   11.4153 C.ar    1  UNL1        0.0695
      2 C          62.8639   85.1674   12.3252 C.ar    1  UNL1        0.0779
      3 C          63.4740   85.4026   13.6752 C.ar    1  UNL1        0.2606
      4 O          63.7517   84.2428   14.5850 O.2     1  UNL1       -0.2671
      5 N          63.8064   86.7975   14.1153 N.ar    1  UNL1       -0.3021
      6 C          63.5287   87.9573   13.2054 C.ar    1  UNL1        0.1621
      7 S          63.8611   89.3522   13.6455 S.2     1  UNL1       -0.0128
      8 N          62.9186   87.7221   11.8554 N.ar    1  UNL1       -0.2997
      9 H          64.2068   86.9519   15.0014 H       1  UNL1        0.1708
     10 C          62.6872   85.2357    9.0598 C.ar    1  UNL1        0.1401
     11 C          62.0771   85.0005    7.7098 C.ar    1  UNL1        0.0378
     12 C          60.7558   85.6216    7.3654 C.ar    1  UNL1        0.0145
     13 C          60.0447   86.4778    8.3710 C.ar    1  UNL1        0.0579
     14 CL         58.7234   87.0988    8.0266 Cl      1  UNL1       -0.0822
     15 C          60.6548   86.7130    9.7209 C.ar    1  UNL1        0.0159
     16 C          61.9761   86.0919   10.0653 C.ar    1  UNL1        0.0508
     17 C          64.0649   83.2035    9.9093 C.3     1  UNL1        0.2525
     18 O          64.0085   84.6147    9.4042 O.3     1  UNL1       -0.4714
     19 C          62.6409   88.8818   10.9455 C.3     1  UNL1        0.1929
     20 C          61.3343   89.6127   11.0396 C.2     1  UNL1        0.2425
     21 N          60.8128   90.3719    9.8556 N.am    1  UNL1       -0.3272
     22 O          60.5495   89.5846   12.3175 O.2     1  UNL1       -0.2732
     23 H          61.3279   90.3903    9.0169 H       1  UNL1        0.1450
     24 H          59.9553   90.8516    9.9173 H       1  UNL1        0.1450
@<TRIPOS>BOND
     1    17    18    1
     2    18    10    1
     3    10    11   ar
     4    11    12   ar
     5    12    13   ar
     6    13    14    1
     7    13    15   ar
     8    15    16   ar
     9    16     1    1
    10     1     2   ar
    11     2     3   ar
    12     3     4    2
    13     3     5   ar
    14     5     6   ar
    15     6     7    2
    16     6     8   ar
    17     8    19    1
    18    19    20    1
    19    20    21   am
    20    20    22    2
    21    16    10   ar
    22     8     1   ar
    23     5     9    1
    24    21    23    1
    25    21    24    1
@<TRIPOS>MOLECULE
*****
 24 25 0 0 0
SMALL
GASTEIGER

@<TRIPOS>ATOM
      1 C          62.1364   86.1987   10.2713 C.ar    1  UNL1        0.0695
      2 C          62.8143   85.4025    9.1960 C.ar    1  UNL1        0.0779
      3 C          62.1922   85.2978    7.8352 C.ar    1  UNL1        0.2606
      4 O          62.8702   84.5015    6.7598 O.2     1  UNL1       -0.2671
      5 N          60.8921   85.9893    7.5496 N.ar    1  UNL1       -0.3021
      6 C          60.2141   86.7855    8.6249 C.ar    1  UNL1        0.1621
      7 S          58.9140   87.4771    8.3394 S.2     1  UNL1       -0.0128
      8 N          60.8363   86.8903    9.9858 N.ar    1  UNL1       -0.2997
      9 H          60.4837   85.9206    6.6564 H       1  UNL1        0.1708
     10 C          62.9457   85.0721   12.4681 C.ar    1  UNL1        0.1401
     11 C          63.5678   85.1769   13.8289 C.ar    1  UNL1        0.0378
     12 C          64.0029   86.5130   14.3539 C.ar    1  UNL1        0.0145
     13 C          63.8157   87.7443   13.5180 C.ar    1  UNL1        0.0579
     14 CL         64.2507   89.0804   14.0430 Cl      1  UNL1       -0.0822
     15 C          63.1936   87.6396   12.1572 C.ar    1  UNL1        0.0159
     16 C          62.7586   86.3035   11.6323 C.ar    1  UNL1        0.0508
     17 C          62.6629   82.5101   12.7940 C.3     1  UNL1        0.2525
     18 O          62.5107   83.7360   11.9431 O.3     1  UNL1       -0.4714
     19 C          60.1583   87.6865   11.0612 C.3     1  UNL1        0.1929
     20 C          60.4524   89.1500   11.2091 C.2     1  UNL1        0.2425
     21 N          60.2038   89.8362   12.5195 N.am    1  UNL1       -0.3272
     22 O          60.9949   89.9272   10.0465 O.2     1  UNL1       -0.2732
     23 H          59.8477   89.3261   13.2826 H       1  UNL1        0.1450
     24 H          60.3968   90.7967   12.6166 H       1  UNL1        0.1450
@<TRIPOS>BOND
     1    17    18    1
     2    18    10    1
     3    10    11   ar
     4    11    12   ar
     5    12    13   ar
     6    13    14    1
     7    13    15   ar
     8    15    16   ar
     9    16     1    1
    10     1     2   ar
    11     2     3   ar
    12     3     4    2
    13     3     5   ar
    14     5     6   ar
    15     6     7    2
    16     6     8   ar
    17     8    19    1
    18    19    20    1
    19    20    21   am
    20    20    22    2
    21    16    10   ar
    22     8     1   ar
    23     5     9    1
    24    21    23    1
    25    21    24    1
@<TRIPOS>MOLECULE
*****
 24 25 0 0 0
SMALL
GASTEIGER

@<TRIPOS>ATOM
      1 C          62.6637   86.1779   12.0271 C.ar    1  UNL1        0.0695
      2 C          62.7114   84.8847   12.7857 C.ar    1  UNL1        0.0779
      3 C          63.3645   84.8303   14.1349 C.ar    1  UNL1        0.2606
      4 O          63.4122   83.5372   14.8935 O.2     1  UNL1       -0.2671
      5 N          63.9699   86.0691   14.7256 N.ar    1  UNL1       -0.3021
      6 C          63.9222   87.3623   13.9670 C.ar    1  UNL1        0.1621
      7 S          64.5276   88.6011   14.5576 S.2     1  UNL1       -0.0128
      8 N          63.2691   87.4166   12.6177 N.ar    1  UNL1       -0.2997
      9 H          64.3986   86.0334   15.6112 H       1  UNL1        0.1708
     10 C          60.7364   87.0016   10.4918 C.ar    1  UNL1        0.1401
     11 C          60.0834   87.0559    9.1425 C.ar    1  UNL1        0.0378
     12 C          60.7044   86.3408    7.9793 C.ar    1  UNL1        0.0145
     13 C          61.9784   85.5714    8.1654 C.ar    1  UNL1        0.0579
     14 CL         62.5994   84.8563    7.0022 Cl      1  UNL1       -0.0822
     15 C          62.6315   85.5171    9.5146 C.ar    1  UNL1        0.0159
     16 C          62.0105   86.2322   10.6778 C.ar    1  UNL1        0.0508
     17 C          59.2882   88.9465   11.4244 C.3     1  UNL1        0.2525
     18 O          60.1154   87.7167   11.6549 O.3     1  UNL1       -0.4714
     19 C          63.2214   88.7098   11.8591 C.3     1  UNL1        0.1929
     20 C          62.7506   89.9613   12.5391 C.2     1  UNL1        0.2425
     21 N          61.5058   89.9374   13.3757 N.am    1  UNL1       -0.3272
     22 O          63.5247   91.2365   12.3825 O.2     1  UNL1       -0.2732
     23 H          60.9977   89.1005   13.4784 H       1  UNL1        0.1450
     24 H          61.1968   90.7588   13.8219 H       1  UNL1        0.1450
@<TRIPOS>BOND
     1    17    18    1
     2    18    10    1
     3    10    11   ar
     4    11    12   ar
     5    12    13   ar
     6    13    14    1
     7    13    15   ar
     8    15    16   ar
     9    16     1    1
    10     1     2   ar
    11     2     3   ar
    12     3     4    2
    13     3     5   ar
    14     5     6   ar
    15     6     7    2
    16     6     8   ar
    17     8    19    1
    18    19    20    1
    19    20    21   am
    20    20    22    2
    21    16    10   ar
    22     8     1   ar
    23     5     9    1
    24    21    23    1
    25    21    24    1
@<TRIPOS>MOLECULE
*****
 24 25 0 0 0
SMALL
GASTEIGER

@<TRIPOS>ATOM
      1 C          62.1774   87.9287   10.0958 C.ar    1  UNL1        0.0695
      2 C          62.7427   86.6468    9.5599 C.ar    1  UNL1        0.0779
      3 C          62.0587   85.9413    8.4266 C.ar    1  UNL1        0.2606
      4 O          62.6240   84.6594    7.8907 O.2     1  UNL1       -0.2671
      5 N          60.8092   86.5177    7.8293 N.ar    1  UNL1       -0.3021
      6 C          60.2439   87.7995    8.3652 C.ar    1  UNL1        0.1621
      7 S          58.9945   88.3759    7.7680 S.2     1  UNL1       -0.0128
      8 N          60.9281   88.5050    9.4985 N.ar    1  UNL1       -0.2997
      9 H          60.3602   86.0546    7.0855 H       1  UNL1        0.1708
     10 C          63.1769   87.8917   12.4937 C.ar    1  UNL1        0.1401
     11 C          63.8610   88.5972   13.6269 C.ar    1  UNL1        0.0378
     12 C          64.2298   90.0452   13.4955 C.ar    1  UNL1        0.0145
     13 C          63.9146   90.7877   12.2309 C.ar    1  UNL1        0.0579
     14 CL         64.2834   92.2357   12.0995 Cl      1  UNL1       -0.0822
     15 C          63.2304   90.0822   11.0977 C.ar    1  UNL1        0.0159
     16 C          62.8616   88.6342   11.2291 C.ar    1  UNL1        0.0508
     17 C          63.6347   85.5342   13.4849 C.3     1  UNL1        0.2525
     18 O          62.8080   86.4437   12.6251 O.3     1  UNL1       -0.4714
     19 C          60.3628   89.7869   10.0345 C.3     1  UNL1        0.1929
     20 C          59.5711   89.7827   11.3086 C.2     1  UNL1        0.2425
     21 N          58.8420   91.0197   11.7427 N.am    1  UNL1       -0.3272
     22 O          59.5085   88.5416   12.1486 O.2     1  UNL1       -0.2732
     23 H          58.8831   91.8343   11.1913 H       1  UNL1        0.1450
     24 H          58.3225   91.0169   12.5789 H       1  UNL1        0.1450
@<TRIPOS>BOND
     1    17    18    1
     2    18    10    1
     3    10    11   ar
     4    11    12   ar
     5    12    13   ar
     6    13    14    1
     7    13    15   ar
     8    15    16   ar
     9    16     1    1
    10     1     2   ar
    11     2     3   ar
    12     3     4    2
    13     3     5   ar
    14     5     6   ar
    15     6     7    2
    16     6     8   ar
    17     8    19    1
    18    19    20    1
    19    20    21   am
    20    20    22    2
    21    16    10   ar
    22     8     1   ar
    23     5     9    1
    24    21    23    1
    25    21    24    1
