@<TRIPOS>MOLECULE
*****
 46 50 0 0 0
SMALL
GASTEIGER

@<TRIPOS>ATOM
      1 N          59.9586   88.6542    8.8902 N.am    1  UNL1       -0.2735
      2 C          59.3540   88.3933    7.5424 C.2     1  UNL1        0.2492
      3 O          58.8388   87.0259    7.2035 O.2     1  UNL1       -0.2699
      4 C          59.2646   89.4998    6.5336 C.ar    1  UNL1        0.0567
      5 C          57.9455   90.1584    6.2577 C.ar    1  UNL1        0.0063
      6 C          57.8561   91.2648    5.2489 C.ar    1  UNL1        0.0225
      7 C          59.0858   91.7126    4.5159 C.ar    1  UNL1        0.1202
      8 N          59.3043   92.7697    3.4742 N.ar    1  UNL1       -0.1946
      9 C          60.7585   92.7643    3.1063 C.ar    1  UNL1        0.2925
     10 O          61.4387   91.7040    3.9206 O.2     1  UNL1       -0.4237
     11 C          60.4049   91.0540    4.7918 C.ar    1  UNL1        0.1662
     12 C          60.4943   89.9476    5.8006 C.ar    1  UNL1        0.0437
     13 N          61.4169   93.6617    2.1007 N.pl3   1  UNL1       -0.2608
     14 C          60.6769   94.8469    1.5551 C.3     1  UNL1        0.1124
     15 C          61.3352   95.7442    0.5495 C.3     1  UNL1        0.0940
     16 N          62.7336   95.4564    0.0895 N.3     1  UNL1       -0.2686
     17 C          63.3920   96.3537   -0.9162 C.3     1  UNL1        0.0897
     18 C          63.4736   94.2712    0.6351 C.3     1  UNL1        0.0940
     19 C          62.8153   93.3738    1.6407 C.3     1  UNL1        0.1124
     20 C          60.0480   87.5477    9.8990 C.3     1  UNL1        0.0937
     21 C          61.9675   86.3655    8.6076 C.3     1  UNL1        0.0018
     22 C          61.2209   86.6128    9.8848 C.3     1  UNL1        0.0199
     23 C          61.6474   85.9253   11.1480 C.3     1  UNL1        0.0018
     24 C          60.4738   90.0216    9.2291 C.3     1  UNL1        0.1245
     25 C          61.0464   90.2915   10.5890 C.3     1  UNL1        0.1484
     26 O          60.1321   90.5214   11.7556 O.3     1  UNL1       -0.3810
     27 H          59.2100   90.4618   11.4605 H       1  UNL1        0.2105
     28 C          62.5334   90.3315   10.7822 C.3     1  UNL1        0.1075
     29 N          63.2497   89.1373   11.3398 N.am    1  UNL1       -0.2695
     30 C          63.1560   88.8225   12.8034 C.2     1  UNL1        0.4020
     31 O          62.3460   89.7019   13.7094 O.2     1  UNL1       -0.2264
     32 H          63.7812   88.5601   10.7452 H       1  UNL1        0.1528
     33 O          63.8722   87.6284   13.3610 O.3     1  UNL1       -0.4291
     34 C          64.4180   87.6658   14.7577 C.3     1  UNL1        0.2447
     35 C          63.6576   87.0197   15.8777 C.ar    1  UNL1        0.0714
     36 C          63.3375   85.5592   15.9987 C.ar    1  UNL1        0.1053
     37 N          62.5658   85.3574   17.2690 N.ar    1  UNL1       -0.2350
     38 C          62.4090   86.6932   17.9332 C.ar    1  UNL1        0.1343
     39 S          63.0837   87.7205   17.0733 S.2     1  UNL1       -0.0652
     40 C          63.3041   91.5657   10.4177 C.3     1  UNL1        0.0485
     41 C          64.5630   91.9093   11.1572 C.ar    1  UNL1       -0.0204
     42 C          64.5920   91.8519   12.6558 C.ar    1  UNL1       -0.0042
     43 C          65.8511   92.1955   13.3953 C.ar    1  UNL1       -0.0003
     44 C          67.0810   92.5967   12.6362 C.ar    1  UNL1       -0.0000
     45 C          67.0520   92.6541   11.1376 C.ar    1  UNL1       -0.0003
     46 C          65.7930   92.3105   10.3981 C.ar    1  UNL1       -0.0042
@<TRIPOS>BOND
     1    21    22    1
     2    22    23    1
     3    22    20    1
     4    20     1    1
     5     1    24    1
     6    24    25    1
     7    25    26    1
     8    25    28    1
     9    28    40    1
    10    40    41    1
    11    41    42   ar
    12    42    43   ar
    13    43    44   ar
    14    44    45   ar
    15    45    46   ar
    16    28    29    1
    17    29    30   am
    18    30    31    2
    19    30    33    1
    20    33    34    1
    21    34    35    1
    22    35    36   ar
    23    36    37   ar
    24    37    38   ar
    25    38    39   ar
    26     1     2   am
    27     2     3    2
    28     2     4    1
    29     4     5   ar
    30     5     6   ar
    31     6     7   ar
    32     7     8   ar
    33     8     9   ar
    34     9    13    1
    35    13    14    1
    36    14    15    1
    37    15    16    1
    38    16    17    1
    39    16    18    1
    40    18    19    1
    41     9    10   ar
    42    10    11   ar
    43    11    12   ar
    44    46    41   ar
    45    39    35   ar
    46    12     4   ar
    47    11     7   ar
    48    19    13    1
    49    26    27    1
    50    29    32    1
@<TRIPOS>MOLECULE
*****
 46 50 0 0 0
SMALL
GASTEIGER

@<TRIPOS>ATOM
      1 N          64.0152   87.3241   15.6770 N.am    1  UNL1       -0.2735
      2 C          63.4787   88.7233   15.6119 C.2     1  UNL1        0.2492
      3 O          62.8416   89.3395   16.8221 O.2     1  UNL1       -0.2699
      4 C          63.5793   89.5065   14.3365 C.ar    1  UNL1        0.0567
      5 C          62.5694   89.2986   13.2471 C.ar    1  UNL1        0.0063
      6 C          62.6700   90.0818   11.9718 C.ar    1  UNL1        0.0225
      7 C          63.7805   91.0729   11.7858 C.ar    1  UNL1        0.1202
      8 N          64.1334   91.9829   10.6467 N.ar    1  UNL1       -0.1946
      9 C          65.3614   92.7531   11.0322 C.ar    1  UNL1        0.2925
     10 O          65.7675   92.3192   12.4095 O.2     1  UNL1       -0.4237
     11 C          64.7904   91.2807   12.8752 C.ar    1  UNL1        0.1662
     12 C          64.6898   90.4976   14.1506 C.ar    1  UNL1        0.0437
     13 N          66.0607   93.7775   10.1885 N.pl3   1  UNL1       -0.2608
     14 C          65.4914   95.1594   10.0610 C.3     1  UNL1        0.1124
     15 C          66.1906   96.1837    9.2174 C.3     1  UNL1        0.0940
     16 N          67.4592   95.8262    8.5013 N.3     1  UNL1       -0.2686
     17 C          68.1585   96.8506    7.6576 C.3     1  UNL1        0.0897
     18 C          68.0285   94.4444    8.6289 C.3     1  UNL1        0.0940
     19 C          67.3293   93.4200    9.4725 C.3     1  UNL1        0.1124
     20 C          63.9146   86.5409   16.9525 C.3     1  UNL1        0.0937
     21 C          61.3548   86.1013   17.0167 C.3     1  UNL1        0.0018
     22 C          62.6211   86.5062   17.7112 C.3     1  UNL1        0.0199
     23 C          62.5940   86.8765   19.1646 C.3     1  UNL1        0.0018
     24 C          64.6522   86.7080   14.4669 C.3     1  UNL1        0.1245
     25 C          64.4061   85.2642   14.1427 C.3     1  UNL1        0.1484
     26 O          65.5627   84.3200   13.9991 O.3     1  UNL1       -0.3810
     27 H          66.3925   84.8005   14.1458 H       1  UNL1        0.2105
     28 C          63.0033   84.7647   13.9623 C.3     1  UNL1        0.1075
     29 N          62.1276   85.3564   12.8977 N.am    1  UNL1       -0.2695
     30 C          62.2968   84.9357   11.4679 C.2     1  UNL1        0.4020
     31 O          63.3417   83.9233   11.1026 O.2     1  UNL1       -0.2264
     32 H          61.4418   86.0208   13.1375 H       1  UNL1        0.1528
     33 O          61.4212   85.5273   10.4034 O.3     1  UNL1       -0.4291
     34 C          60.9662   86.9524   10.5129 C.3     1  UNL1        0.2447
     35 C          60.3167   87.6246    9.3397 C.ar    1  UNL1        0.0714
     36 C          60.3553   89.0922    9.0318 C.ar    1  UNL1        0.1053
     37 N          59.5771   89.3219    7.7702 N.ar    1  UNL1       -0.2350
     38 C          59.0574   87.9962    7.2984 C.ar    1  UNL1        0.1343
     39 S          59.5145   86.9472    8.2683 S.2     1  UNL1       -0.0652
     40 C          62.4761   83.6735   14.8462 C.3     1  UNL1        0.0485
     41 C          62.3767   82.2698   14.3268 C.ar    1  UNL1       -0.0204
     42 C          63.6053   81.5628   13.8364 C.ar    1  UNL1       -0.0042
     43 C          63.5058   80.1591   13.3170 C.ar    1  UNL1       -0.0003
     44 C          62.1777   79.4625   13.2880 C.ar    1  UNL1       -0.0000
     45 C          60.9491   80.1695   13.7784 C.ar    1  UNL1       -0.0003
     46 C          61.0485   81.5732   14.2978 C.ar    1  UNL1       -0.0042
@<TRIPOS>BOND
     1    21    22    1
     2    22    23    1
     3    22    20    1
     4    20     1    1
     5     1    24    1
     6    24    25    1
     7    25    26    1
     8    25    28    1
     9    28    40    1
    10    40    41    1
    11    41    42   ar
    12    42    43   ar
    13    43    44   ar
    14    44    45   ar
    15    45    46   ar
    16    28    29    1
    17    29    30   am
    18    30    31    2
    19    30    33    1
    20    33    34    1
    21    34    35    1
    22    35    36   ar
    23    36    37   ar
    24    37    38   ar
    25    38    39   ar
    26     1     2   am
    27     2     3    2
    28     2     4    1
    29     4     5   ar
    30     5     6   ar
    31     6     7   ar
    32     7     8   ar
    33     8     9   ar
    34     9    13    1
    35    13    14    1
    36    14    15    1
    37    15    16    1
    38    16    17    1
    39    16    18    1
    40    18    19    1
    41     9    10   ar
    42    10    11   ar
    43    11    12   ar
    44    46    41   ar
    45    39    35   ar
    46    12     4   ar
    47    11     7   ar
    48    19    13    1
    49    26    27    1
    50    29    32    1
@<TRIPOS>MOLECULE
*****
 46 50 0 0 0
SMALL
GASTEIGER

@<TRIPOS>ATOM
      1 N          59.9460   88.6220    8.9357 N.am    1  UNL1       -0.2735
      2 C          59.3295   88.3580    7.5940 C.2     1  UNL1        0.2492
      3 O          58.8133   86.9893    7.2620 O.2     1  UNL1       -0.2699
      4 C          59.2292   89.4627    6.5842 C.ar    1  UNL1        0.0567
      5 C          57.9020   90.1017    6.3010 C.ar    1  UNL1        0.0063
      6 C          57.8017   91.2063    5.2912 C.ar    1  UNL1        0.0225
      7 C          59.0286   91.6720    4.5647 C.ar    1  UNL1        0.1202
      8 N          59.2371   92.7318    3.5237 N.ar    1  UNL1       -0.1946
      9 C          60.6931   92.7477    3.1636 C.ar    1  UNL1        0.2925
     10 O          61.3845   91.6978    3.9820 O.2     1  UNL1       -0.4237
     11 C          60.3558   91.0330    4.8479 C.ar    1  UNL1        0.1662
     12 C          60.4561   89.9284    5.8576 C.ar    1  UNL1        0.0437
     13 N          61.3436   93.6543    2.1611 N.pl3   1  UNL1       -0.2608
     14 C          60.5445   94.7386    1.5010 C.3     1  UNL1        0.1124
     15 C          61.1949   95.6453    0.4986 C.3     1  UNL1        0.0940
     16 N          62.6445   95.4676    0.1562 N.3     1  UNL1       -0.2686
     17 C          63.2950   96.3742   -0.8463 C.3     1  UNL1        0.0897
     18 C          63.4436   94.3833    0.8163 C.3     1  UNL1        0.0940
     19 C          62.7931   93.4767    1.8188 C.3     1  UNL1        0.1124
     20 C          60.0463   87.5173    9.9455 C.3     1  UNL1        0.0937
     21 C          61.5588   85.7485   11.1004 C.3     1  UNL1        0.0018
     22 C          61.1903   86.5489    9.8865 C.3     1  UNL1        0.0199
     23 C          61.9658   86.3808    8.6134 C.3     1  UNL1        0.0018
     24 C          60.4622   89.9907    9.2676 C.3     1  UNL1        0.1245
     25 C          61.1329   90.2399   10.5861 C.3     1  UNL1        0.1484
     26 O          60.3256   90.7026   11.7626 O.3     1  UNL1       -0.3810
     27 H          59.3952   90.7897   11.5022 H       1  UNL1        0.2105
     28 C          62.6108   90.0265   10.7279 C.3     1  UNL1        0.1075
     29 N          63.5709   91.0435   10.1858 N.am    1  UNL1       -0.2695
     30 C          64.1893   92.0555   11.1042 C.2     1  UNL1        0.4020
     31 O          63.8477   92.0503   12.5648 O.2     1  UNL1       -0.2264
     32 H          63.7951   91.0469    9.2272 H       1  UNL1        0.1528
     33 O          65.1494   93.0725   10.5621 O.3     1  UNL1       -0.4291
     34 C          66.5754   93.0804   11.0273 C.3     1  UNL1        0.2447
     35 C          66.8868   93.0032   12.4926 C.ar    1  UNL1        0.0714
     36 C          66.5019   94.0158   13.5303 C.ar    1  UNL1        0.1053
     37 N          67.0149   93.5383   14.8565 N.ar    1  UNL1       -0.2350
     38 C          67.7168   92.2307   14.6385 C.ar    1  UNL1        0.1343
     39 S          67.6376   91.9000   13.1776 S.2     1  UNL1       -0.0652
     40 C          63.1286   88.7961   11.4119 C.3     1  UNL1        0.0485
     41 C          63.3273   88.7919   12.8987 C.ar    1  UNL1       -0.0204
     42 C          63.9659   87.6104   13.5667 C.ar    1  UNL1       -0.0042
     43 C          64.1646   87.6063   15.0535 C.ar    1  UNL1       -0.0003
     44 C          63.7247   88.7836   15.8722 C.ar    1  UNL1       -0.0000
     45 C          63.0861   89.9651   15.2042 C.ar    1  UNL1       -0.0003
     46 C          62.8874   89.9693   13.7174 C.ar    1  UNL1       -0.0042
@<TRIPOS>BOND
     1    21    22    1
     2    22    23    1
     3    22    20    1
     4    20     1    1
     5     1    24    1
     6    24    25    1
     7    25    26    1
     8    25    28    1
     9    28    40    1
    10    40    41    1
    11    41    42   ar
    12    42    43   ar
    13    43    44   ar
    14    44    45   ar
    15    45    46   ar
    16    28    29    1
    17    29    30   am
    18    30    31    2
    19    30    33    1
    20    33    34    1
    21    34    35    1
    22    35    36   ar
    23    36    37   ar
    24    37    38   ar
    25    38    39   ar
    26     1     2   am
    27     2     3    2
    28     2     4    1
    29     4     5   ar
    30     5     6   ar
    31     6     7   ar
    32     7     8   ar
    33     8     9   ar
    34     9    13    1
    35    13    14    1
    36    14    15    1
    37    15    16    1
    38    16    17    1
    39    16    18    1
    40    18    19    1
    41     9    10   ar
    42    10    11   ar
    43    11    12   ar
    44    46    41   ar
    45    39    35   ar
    46    12     4   ar
    47    11     7   ar
    48    19    13    1
    49    26    27    1
    50    29    32    1
@<TRIPOS>MOLECULE
*****
 46 50 0 0 0
SMALL
GASTEIGER

@<TRIPOS>ATOM
      1 N          61.1742   86.5881    8.6329 N.am    1  UNL1       -0.2735
      2 C          60.6217   87.9795    8.7268 C.2     1  UNL1        0.2492
      3 O          59.5890   88.4444    7.7433 O.2     1  UNL1       -0.2699
      4 C          61.1020   88.9060    9.8044 C.ar    1  UNL1        0.0567
      5 C          60.1116   89.6530   10.6475 C.ar    1  UNL1        0.0063
      6 C          60.5918   90.5795   11.7250 C.ar    1  UNL1        0.0225
      7 C          62.0625   90.7589   11.9593 C.ar    1  UNL1        0.1202
      8 N          62.8277   91.5971   12.9402 N.ar    1  UNL1       -0.1946
      9 C          64.2910   91.3680   12.7032 C.ar    1  UNL1        0.2925
     10 O          64.4302   90.3883   11.5758 O.2     1  UNL1       -0.4237
     11 C          63.0529   90.0119   11.1161 C.ar    1  UNL1        0.1662
     12 C          62.5727   89.0854   10.0386 C.ar    1  UNL1        0.0437
     13 N          65.4175   92.0065   13.4605 N.pl3   1  UNL1       -0.2608
     14 C          66.1191   91.2441   14.5451 C.3     1  UNL1        0.1124
     15 C          67.2455   91.8826   15.3025 C.3     1  UNL1        0.0940
     16 N          67.6702   93.2834   14.9752 N.3     1  UNL1       -0.2686
     17 C          68.7967   93.9219   15.7325 C.3     1  UNL1        0.0897
     18 C          66.9686   94.0458   13.8906 C.3     1  UNL1        0.0940
     19 C          65.8422   93.4074   13.1332 C.3     1  UNL1        0.1124
     20 C          60.6940   85.6616    7.5553 C.3     1  UNL1        0.0937
     21 C          63.1004   84.7275    7.2619 C.3     1  UNL1        0.0018
     22 C          61.6767   84.8181    6.7985 C.3     1  UNL1        0.0199
     23 C          61.2357   84.0653    5.5783 C.3     1  UNL1        0.0018
     24 C          62.2069   86.1232    9.6164 C.3     1  UNL1        0.1245
     25 C          61.8114   85.8161   11.0304 C.3     1  UNL1        0.1484
     26 O          60.6238   86.4983   11.6420 O.3     1  UNL1       -0.3810
     27 H          60.2282   87.1018   10.9937 H       1  UNL1        0.2105
     28 C          62.6035   84.8267   11.8327 C.3     1  UNL1        0.1075
     29 N          63.0769   85.1855   13.2101 N.am    1  UNL1       -0.2695
     30 C          64.3874   84.6577   13.7140 C.2     1  UNL1        0.4020
     31 O          65.2246   83.7711   12.8404 O.2     1  UNL1       -0.2264
     32 H          62.5274   85.7674   13.7834 H       1  UNL1        0.1528
     33 O          64.8608   85.0165   15.0913 O.3     1  UNL1       -0.4291
     34 C          63.8988   85.5896   16.0894 C.3     1  UNL1        0.2447
     35 C          63.6353   87.0661   16.1147 C.ar    1  UNL1        0.0714
     36 C          64.0080   88.0468   15.0426 C.ar    1  UNL1        0.1053
     37 N          63.5558   89.4079   15.4818 N.ar    1  UNL1       -0.2350
     38 C          62.9036   89.2684   16.8255 C.ar    1  UNL1        0.1343
     39 S          62.9528   87.8211   17.2166 S.2     1  UNL1       -0.0652
     40 C          62.9223   83.4785   11.2576 C.3     1  UNL1        0.0485
     41 C          62.6047   82.2367   12.0366 C.ar    1  UNL1       -0.0204
     42 C          62.9266   80.8886   11.4631 C.ar    1  UNL1       -0.0042
     43 C          62.6089   79.6467   12.2422 C.ar    1  UNL1       -0.0003
     44 C          61.9694   79.7530   13.5948 C.ar    1  UNL1       -0.0000
     45 C          61.6474   81.1011   14.1684 C.ar    1  UNL1       -0.0003
     46 C          61.9651   82.3429   13.3893 C.ar    1  UNL1       -0.0042
@<TRIPOS>BOND
     1    21    22    1
     2    22    23    1
     3    22    20    1
     4    20     1    1
     5     1    24    1
     6    24    25    1
     7    25    26    1
     8    25    28    1
     9    28    40    1
    10    40    41    1
    11    41    42   ar
    12    42    43   ar
    13    43    44   ar
    14    44    45   ar
    15    45    46   ar
    16    28    29    1
    17    29    30   am
    18    30    31    2
    19    30    33    1
    20    33    34    1
    21    34    35    1
    22    35    36   ar
    23    36    37   ar
    24    37    38   ar
    25    38    39   ar
    26     1     2   am
    27     2     3    2
    28     2     4    1
    29     4     5   ar
    30     5     6   ar
    31     6     7   ar
    32     7     8   ar
    33     8     9   ar
    34     9    13    1
    35    13    14    1
    36    14    15    1
    37    15    16    1
    38    16    17    1
    39    16    18    1
    40    18    19    1
    41     9    10   ar
    42    10    11   ar
    43    11    12   ar
    44    46    41   ar
    45    39    35   ar
    46    12     4   ar
    47    11     7   ar
    48    19    13    1
    49    26    27    1
    50    29    32    1
@<TRIPOS>MOLECULE
*****
 46 50 0 0 0
SMALL
GASTEIGER

@<TRIPOS>ATOM
      1 N          63.7686   86.4656   15.9904 N.am    1  UNL1       -0.2735
      2 C          63.1739   87.7523   16.4811 C.2     1  UNL1        0.2492
      3 O          62.0571   87.7287   17.4822 O.2     1  UNL1       -0.2699
      4 C          63.6961   89.0626   15.9708 C.ar    1  UNL1        0.0567
      5 C          63.7601   90.2512   16.8836 C.ar    1  UNL1        0.0063
      6 C          64.2823   91.5614   16.3732 C.ar    1  UNL1        0.0225
      7 C          64.7405   91.6832   14.9501 C.ar    1  UNL1        0.1202
      8 N          65.2986   92.8368   14.1705 N.ar    1  UNL1       -0.1946
      9 C          65.5795   92.3612   12.7759 C.ar    1  UNL1        0.2925
     10 O          65.1950   90.9136   12.6936 O.2     1  UNL1       -0.4237
     11 C          64.6764   90.4946   14.0373 C.ar    1  UNL1        0.1662
     12 C          64.1543   89.1843   14.5477 C.ar    1  UNL1        0.0437
     13 N          66.1455   93.1880   11.6596 N.pl3   1  UNL1       -0.2608
     14 C          66.8669   92.5229   10.5251 C.3     1  UNL1        0.1124
     15 C          67.4329   93.3496    9.4088 C.3     1  UNL1        0.0940
     16 N          67.2775   94.8413    9.4270 N.3     1  UNL1       -0.2686
     17 C          67.8435   95.6681    8.3106 C.3     1  UNL1        0.0897
     18 C          66.5560   95.5064   10.5615 C.3     1  UNL1        0.0940
     19 C          65.9900   94.6798   11.6778 C.3     1  UNL1        0.1124
     20 C          63.2464   85.1553   16.5007 C.3     1  UNL1        0.0937
     21 C          62.0134   83.1575   15.3878 C.3     1  UNL1        0.0018
     22 C          62.0008   84.5633   15.9107 C.3     1  UNL1        0.0199
     23 C          60.7426   85.3772   15.8435 C.3     1  UNL1        0.0018
     24 C          64.8854   86.4892   14.9894 C.3     1  UNL1        0.1245
     25 C          65.1800   85.2708   14.1655 C.3     1  UNL1        0.1484
     26 O          66.4078   84.4556   14.4445 O.3     1  UNL1       -0.3810
     27 H          66.8974   84.8507   15.1829 H       1  UNL1        0.2105
     28 C          64.2467   84.8675   13.0626 C.3     1  UNL1        0.1075
     29 N          62.9241   85.5584   12.9092 N.am    1  UNL1       -0.2695
     30 C          62.3070   85.7036   11.5497 C.2     1  UNL1        0.4020
     31 O          63.0126   85.1580   10.3437 O.2     1  UNL1       -0.2264
     32 H          62.4611   85.9166   13.7008 H       1  UNL1        0.1528
     33 O          60.9845   86.3945   11.3963 O.3     1  UNL1       -0.4291
     34 C          60.9190   87.7608   10.7808 C.3     1  UNL1        0.2447
     35 C          60.2927   87.9459    9.4304 C.ar    1  UNL1        0.0714
     36 C          60.1353   89.2479    8.7025 C.ar    1  UNL1        0.1053
     37 N          59.4591   88.9682    7.3930 N.ar    1  UNL1       -0.2350
     38 C          59.1987   87.4931    7.3117 C.ar    1  UNL1        0.1343
     39 S          59.7138   86.8614    8.5709 S.2     1  UNL1       -0.0652
     40 C          64.6359   83.7735   12.1132 C.3     1  UNL1        0.0485
     41 C          63.9727   82.4311   12.2033 C.ar    1  UNL1       -0.0204
     42 C          63.8781   81.7286   13.5252 C.ar    1  UNL1       -0.0042
     43 C          63.2148   80.3861   13.6152 C.ar    1  UNL1       -0.0003
     44 C          62.6462   79.7464   12.3834 C.ar    1  UNL1       -0.0000
     45 C          62.7409   80.4489   11.0615 C.ar    1  UNL1       -0.0003
     46 C          63.4041   81.7913   10.9714 C.ar    1  UNL1       -0.0042
@<TRIPOS>BOND
     1    21    22    1
     2    22    23    1
     3    22    20    1
     4    20     1    1
     5     1    24    1
     6    24    25    1
     7    25    26    1
     8    25    28    1
     9    28    40    1
    10    40    41    1
    11    41    42   ar
    12    42    43   ar
    13    43    44   ar
    14    44    45   ar
    15    45    46   ar
    16    28    29    1
    17    29    30   am
    18    30    31    2
    19    30    33    1
    20    33    34    1
    21    34    35    1
    22    35    36   ar
    23    36    37   ar
    24    37    38   ar
    25    38    39   ar
    26     1     2   am
    27     2     3    2
    28     2     4    1
    29     4     5   ar
    30     5     6   ar
    31     6     7   ar
    32     7     8   ar
    33     8     9   ar
    34     9    13    1
    35    13    14    1
    36    14    15    1
    37    15    16    1
    38    16    17    1
    39    16    18    1
    40    18    19    1
    41     9    10   ar
    42    10    11   ar
    43    11    12   ar
    44    46    41   ar
    45    39    35   ar
    46    12     4   ar
    47    11     7   ar
    48    19    13    1
    49    26    27    1
    50    29    32    1
@<TRIPOS>MOLECULE
*****
 46 50 0 0 0
SMALL
GASTEIGER

@<TRIPOS>ATOM
      1 N          63.0211   83.2852   14.5088 N.am    1  UNL1       -0.2735
      2 C          63.6529   83.9935   15.6704 C.2     1  UNL1        0.2492
      3 O          64.2713   83.2027   16.7848 O.2     1  UNL1       -0.2699
      4 C          63.6661   85.4928   15.7174 C.ar    1  UNL1        0.0567
      5 C          62.9426   86.2151   16.8150 C.ar    1  UNL1        0.0063
      6 C          62.9558   87.7143   16.8620 C.ar    1  UNL1        0.0225
      7 C          63.6927   88.4911   15.8115 C.ar    1  UNL1        0.1202
      8 N          63.8809   89.9642   15.5997 N.ar    1  UNL1       -0.1946
      9 C          64.7208   90.1522   14.3713 C.ar    1  UNL1        0.2925
     10 O          65.0517   88.7954   13.8238 O.2     1  UNL1       -0.4237
     11 C          64.4162   87.7688   14.7140 C.ar    1  UNL1        0.1662
     12 C          64.4029   86.2696   14.6669 C.ar    1  UNL1        0.0437
     13 N          65.1539   91.4663   13.7919 N.pl3   1  UNL1       -0.2608
     14 C          64.7526   91.8390   12.3954 C.3     1  UNL1        0.1124
     15 C          65.1857   93.1530   11.8160 C.3     1  UNL1        0.0940
     16 N          66.0200   94.0943   12.6331 N.3     1  UNL1       -0.2686
     17 C          66.4531   95.4085   12.0537 C.3     1  UNL1        0.0897
     18 C          66.4214   93.7217   14.0295 C.3     1  UNL1        0.0940
     19 C          65.9883   92.4077   14.6089 C.3     1  UNL1        0.1124
     20 C          63.0079   81.7859   14.4618 C.3     1  UNL1        0.0937
     21 C          62.4691   80.5922   12.2180 C.3     1  UNL1        0.0018
     22 C          62.0347   81.0721   13.5711 C.3     1  UNL1        0.0199
     23 C          60.6270   80.8383   14.0335 C.3     1  UNL1        0.0018
     24 C          62.4027   84.0760   13.3944 C.3     1  UNL1        0.1245
     25 C          63.1435   84.2577   12.1027 C.3     1  UNL1        0.1484
     26 O          64.3676   83.4388   11.8186 O.3     1  UNL1       -0.3810
     27 H          64.5409   82.8461   12.5667 H       1  UNL1        0.2105
     28 C          62.6601   85.2584   11.0952 C.3     1  UNL1        0.1075
     29 N          61.4836   86.1334   11.4122 N.am    1  UNL1       -0.2695
     30 C          61.6766   87.6083   11.6057 C.2     1  UNL1        0.4020
     31 O          63.0460   88.2081   11.4823 O.2     1  UNL1       -0.2264
     32 H          60.5849   85.7397   11.4932 H       1  UNL1        0.1528
     33 O          60.5003   88.4834   11.9227 O.3     1  UNL1       -0.4291
     34 C          60.0416   89.5115   10.9314 C.3     1  UNL1        0.2447
     35 C          59.6838   89.0990    9.5343 C.ar    1  UNL1        0.0714
     36 C          58.8850   87.8890    9.1495 C.ar    1  UNL1        0.1053
     37 N          58.7694   87.8662    7.6541 N.ar    1  UNL1       -0.2350
     38 C          59.4967   89.0621    7.1147 C.ar    1  UNL1        0.1343
     39 S          60.0618   89.8239    8.2767 S.2     1  UNL1       -0.0652
     40 C          63.3530   85.3839    9.7709 C.3     1  UNL1        0.0485
     41 C          62.5926   85.1422    8.5007 C.ar    1  UNL1       -0.0204
     42 C          63.2774   84.5103    7.3252 C.ar    1  UNL1       -0.0042
     43 C          62.5170   84.2686    6.0551 C.ar    1  UNL1       -0.0003
     44 C          61.0717   84.6587    5.9604 C.ar    1  UNL1       -0.0000
     45 C          60.3868   85.2905    7.1358 C.ar    1  UNL1       -0.0003
     46 C          61.1472   85.5323    8.4060 C.ar    1  UNL1       -0.0042
@<TRIPOS>BOND
     1    21    22    1
     2    22    23    1
     3    22    20    1
     4    20     1    1
     5     1    24    1
     6    24    25    1
     7    25    26    1
     8    25    28    1
     9    28    40    1
    10    40    41    1
    11    41    42   ar
    12    42    43   ar
    13    43    44   ar
    14    44    45   ar
    15    45    46   ar
    16    28    29    1
    17    29    30   am
    18    30    31    2
    19    30    33    1
    20    33    34    1
    21    34    35    1
    22    35    36   ar
    23    36    37   ar
    24    37    38   ar
    25    38    39   ar
    26     1     2   am
    27     2     3    2
    28     2     4    1
    29     4     5   ar
    30     5     6   ar
    31     6     7   ar
    32     7     8   ar
    33     8     9   ar
    34     9    13    1
    35    13    14    1
    36    14    15    1
    37    15    16    1
    38    16    17    1
    39    16    18    1
    40    18    19    1
    41     9    10   ar
    42    10    11   ar
    43    11    12   ar
    44    46    41   ar
    45    39    35   ar
    46    12     4   ar
    47    11     7   ar
    48    19    13    1
    49    26    27    1
    50    29    32    1
@<TRIPOS>MOLECULE
*****
 46 50 0 0 0
SMALL
GASTEIGER

@<TRIPOS>ATOM
      1 N          61.2609   87.2638    9.8137 N.am    1  UNL1       -0.2735
      2 C          60.9317   88.6973   10.1079 C.2     1  UNL1        0.2492
      3 O          59.5097   89.1696   10.0390 O.2     1  UNL1       -0.2699
      4 C          62.0246   89.6586   10.4709 C.ar    1  UNL1        0.0567
      5 C          62.3511   90.8027    9.5575 C.ar    1  UNL1        0.0063
      6 C          63.4438   91.7639    9.9206 C.ar    1  UNL1        0.0225
      7 C          64.2101   91.5810   11.1971 C.ar    1  UNL1        0.1202
      8 N          65.3319   92.3620   11.8150 N.ar    1  UNL1       -0.1946
      9 C          65.6986   91.7005   13.1104 C.ar    1  UNL1        0.2925
     10 O          64.8035   90.5107   13.2930 O.2     1  UNL1       -0.4237
     11 C          63.8836   90.4369   12.1105 C.ar    1  UNL1        0.1662
     12 C          62.7908   89.4757   11.7474 C.ar    1  UNL1        0.0437
     13 N          66.7719   92.1499   14.0570 N.pl3   1  UNL1       -0.2608
     14 C          66.4027   92.7027   15.4017 C.3     1  UNL1        0.1124
     15 C          67.4759   93.1521   16.3483 C.3     1  UNL1        0.0940
     16 N          68.9184   93.0486   15.9503 N.3     1  UNL1       -0.2686
     17 C          69.9918   93.4979   16.8969 C.3     1  UNL1        0.0897
     18 C          69.2877   92.4957   14.6056 C.3     1  UNL1        0.0940
     19 C          68.2144   92.0464   13.6590 C.3     1  UNL1        0.1124
     20 C          60.1681   86.3025    9.4507 C.3     1  UNL1        0.0937
     21 C          60.2979   85.1813    7.1106 C.3     1  UNL1        0.0018
     22 C          59.6978   86.2035    8.0297 C.3     1  UNL1        0.0199
     23 C          58.6273   87.1268    7.5280 C.3     1  UNL1        0.0018
     24 C          62.6830   86.7914    9.8825 C.3     1  UNL1        0.1245
     25 C          63.0115   85.3566    9.5936 C.3     1  UNL1        0.1484
     26 O          63.1773   84.8959    8.1758 O.3     1  UNL1       -0.3810
     27 H          63.0401   85.6446    7.5745 H       1  UNL1        0.2105
     28 C          63.1743   84.3825   10.7226 C.3     1  UNL1        0.1075
     29 N          62.4479   84.6053   12.0160 N.am    1  UNL1       -0.2695
     30 C          63.2039   84.5985   13.3116 C.2     1  UNL1        0.4020
     31 O          64.6863   84.3688   13.3137 O.2     1  UNL1       -0.2264
     32 H          61.4750   84.7560   12.0146 H       1  UNL1        0.1528
     33 O          62.4777   84.8212   14.6049 O.3     1  UNL1       -0.4291
     34 C          63.2221   85.3239   15.8062 C.3     1  UNL1        0.2447
     35 C          63.3309   86.7987   16.0582 C.ar    1  UNL1        0.0714
     36 C          63.9716   87.8038   15.1476 C.ar    1  UNL1        0.1053
     37 N          63.8547   89.1535   15.7915 N.ar    1  UNL1       -0.2350
     38 C          63.1417   88.9825   17.1002 C.ar    1  UNL1        0.1343
     39 S          62.8180   87.5271   17.2649 S.2     1  UNL1       -0.0652
     40 C          64.0633   83.1856   10.5582 C.3     1  UNL1        0.0485
     41 C          63.5419   81.8151   10.8737 C.ar    1  UNL1       -0.0204
     42 C          63.1862   81.4545   12.2856 C.ar    1  UNL1       -0.0042
     43 C          62.6647   80.0839   12.6011 C.ar    1  UNL1       -0.0003
     44 C          62.4989   79.0738   11.5046 C.ar    1  UNL1       -0.0000
     45 C          62.8546   79.4344   10.0927 C.ar    1  UNL1       -0.0003
     46 C          63.3760   80.8049    9.7772 C.ar    1  UNL1       -0.0042
@<TRIPOS>BOND
     1    21    22    1
     2    22    23    1
     3    22    20    1
     4    20     1    1
     5     1    24    1
     6    24    25    1
     7    25    26    1
     8    25    28    1
     9    28    40    1
    10    40    41    1
    11    41    42   ar
    12    42    43   ar
    13    43    44   ar
    14    44    45   ar
    15    45    46   ar
    16    28    29    1
    17    29    30   am
    18    30    31    2
    19    30    33    1
    20    33    34    1
    21    34    35    1
    22    35    36   ar
    23    36    37   ar
    24    37    38   ar
    25    38    39   ar
    26     1     2   am
    27     2     3    2
    28     2     4    1
    29     4     5   ar
    30     5     6   ar
    31     6     7   ar
    32     7     8   ar
    33     8     9   ar
    34     9    13    1
    35    13    14    1
    36    14    15    1
    37    15    16    1
    38    16    17    1
    39    16    18    1
    40    18    19    1
    41     9    10   ar
    42    10    11   ar
    43    11    12   ar
    44    46    41   ar
    45    39    35   ar
    46    12     4   ar
    47    11     7   ar
    48    19    13    1
    49    26    27    1
    50    29    32    1
@<TRIPOS>MOLECULE
*****
 46 50 0 0 0
SMALL
GASTEIGER

@<TRIPOS>ATOM
      1 N          61.1137   87.9381    9.7985 N.am    1  UNL1       -0.2735
      2 C          60.9267   89.3237   10.3414 C.2     1  UNL1        0.2492
      3 O          59.5448   89.8518   10.5897 O.2     1  UNL1       -0.2699
      4 C          62.1215   90.1815   10.6360 C.ar    1  UNL1        0.0567
      5 C          62.5991   91.1767    9.6204 C.ar    1  UNL1        0.0063
      6 C          63.7938   92.0344    9.9151 C.ar    1  UNL1        0.0225
      7 C          64.5110   91.8969   11.2253 C.ar    1  UNL1        0.1202
      8 N          65.7085   92.5999   11.7927 N.ar    1  UNL1       -0.1946
      9 C          65.9710   92.0392   13.1589 C.ar    1  UNL1        0.2925
     10 O          64.9358   90.9896   13.4359 O.2     1  UNL1       -0.4237
     11 C          64.0335   90.9017   12.2409 C.ar    1  UNL1        0.1662
     12 C          62.8387   90.0440   11.9463 C.ar    1  UNL1        0.0437
     13 N          67.0749   92.4550   14.0855 N.pl3   1  UNL1       -0.2608
     14 C          66.7869   93.3882   15.2240 C.3     1  UNL1        0.1124
     15 C          67.8907   93.8040   16.1506 C.3     1  UNL1        0.0940
     16 N          69.2826   93.2865   15.9387 N.3     1  UNL1       -0.2686
     17 C          70.3865   93.7023   16.8654 C.3     1  UNL1        0.0897
     18 C          69.5706   92.3533   14.8003 C.3     1  UNL1        0.0940
     19 C          68.4668   91.9375   13.8737 C.3     1  UNL1        0.1124
     20 C          59.9189   87.0803    9.5039 C.3     1  UNL1        0.0937
     21 C          59.8339   85.5749    7.3881 C.3     1  UNL1        0.0018
     22 C          59.4874   86.8573    8.0847 C.3     1  UNL1        0.0199
     23 C          58.7093   87.9168    7.3621 C.3     1  UNL1        0.0018
     24 C          62.4956   87.4100    9.5501 C.3     1  UNL1        0.1245
     25 C          62.7231   85.9324    9.4278 C.3     1  UNL1        0.1484
     26 O          63.2690   85.3606    8.1531 O.3     1  UNL1       -0.3810
     27 H          63.4187   86.0763    7.5157 H       1  UNL1        0.2105
     28 C          62.4047   85.0266   10.5803 C.3     1  UNL1        0.1075
     29 N          62.4016   83.5391   10.3865 N.am    1  UNL1       -0.2695
     30 C          63.6982   82.7865   10.3378 C.2     1  UNL1        0.4020
     31 O          64.9978   83.5213   10.4827 O.2     1  UNL1       -0.2264
     32 H          61.5486   83.0569   10.2914 H       1  UNL1        0.1528
     33 O          63.6952   81.2991   10.1440 O.3     1  UNL1       -0.4291
     34 C          62.9817   80.4164   11.1248 C.3     1  UNL1        0.2447
     35 C          62.8155   80.8583   12.5486 C.ar    1  UNL1        0.0714
     36 C          63.9192   81.0539   13.5455 C.ar    1  UNL1        0.1053
     37 N          63.3024   81.4985   14.8385 N.ar    1  UNL1       -0.2350
     38 C          61.8176   81.5777   14.6407 C.ar    1  UNL1        0.1343
     39 S          61.5167   81.1820   13.2255 S.2     1  UNL1       -0.0652
     40 C          62.0893   85.6083   11.9265 C.3     1  UNL1        0.0485
     41 C          63.1717   85.7476   12.9554 C.ar    1  UNL1       -0.0204
     42 C          63.5184   87.1013   13.5007 C.ar    1  UNL1       -0.0042
     43 C          64.6009   87.2407   14.5298 C.ar    1  UNL1       -0.0003
     44 C          65.3366   86.0263   15.0135 C.ar    1  UNL1       -0.0000
     45 C          64.9900   84.6726   14.4682 C.ar    1  UNL1       -0.0003
     46 C          63.9075   84.5333   13.4392 C.ar    1  UNL1       -0.0042
@<TRIPOS>BOND
     1    21    22    1
     2    22    23    1
     3    22    20    1
     4    20     1    1
     5     1    24    1
     6    24    25    1
     7    25    26    1
     8    25    28    1
     9    28    40    1
    10    40    41    1
    11    41    42   ar
    12    42    43   ar
    13    43    44   ar
    14    44    45   ar
    15    45    46   ar
    16    28    29    1
    17    29    30   am
    18    30    31    2
    19    30    33    1
    20    33    34    1
    21    34    35    1
    22    35    36   ar
    23    36    37   ar
    24    37    38   ar
    25    38    39   ar
    26     1     2   am
    27     2     3    2
    28     2     4    1
    29     4     5   ar
    30     5     6   ar
    31     6     7   ar
    32     7     8   ar
    33     8     9   ar
    34     9    13    1
    35    13    14    1
    36    14    15    1
    37    15    16    1
    38    16    17    1
    39    16    18    1
    40    18    19    1
    41     9    10   ar
    42    10    11   ar
    43    11    12   ar
    44    46    41   ar
    45    39    35   ar
    46    12     4   ar
    47    11     7   ar
    48    19    13    1
    49    26    27    1
    50    29    32    1
