@<TRIPOS>MOLECULE
*****
 62 68 0 0 0
SMALL
GASTEIGER

@<TRIPOS>ATOM
      1 N          58.4926   95.6190   -5.8635 N.3     1  UNL1       -0.1862
      2 C          59.5689   95.5520   -6.9060 C.3     1  UNL1        0.1775
      3 C          61.0096   95.6689   -6.5052 C.2     1  UNL1        0.2452
      4 O          62.0860   95.6018   -7.5478 O.2     1  UNL1       -0.2732
      5 N          61.3740   95.8528   -5.0618 N.am    1  UNL1       -0.2541
      6 C          62.8147   95.9697   -4.6609 C.3     1  UNL1        0.1577
      7 C          63.1791   96.1536   -3.2176 C.2     1  UNL1        0.2445
      8 O          64.6198   96.2705   -2.8167 O.2     1  UNL1       -0.2731
      9 N          62.1027   96.2206   -2.1750 N.am    1  UNL1       -0.2705
     10 C          60.6620   96.1038   -2.5758 C.3     1  UNL1        0.1359
     11 C          60.2977   95.9198   -4.0193 C.3     1  UNL1        0.1908
     12 N          58.8569   95.8030   -4.4201 N.am    1  UNL1       -0.1863
     13 C          57.7806   95.8700   -3.3775 C.2     1  UNL1        0.3191
     14 O          58.1449   96.0539   -1.9341 O.2     1  UNL1       -0.2512
     15 N          56.3398   95.7531   -3.7783 N.am    1  UNL1       -0.2836
     16 H          56.1007   95.6324   -4.7257 H       1  UNL1        0.1513
     17 C          57.0519   95.5022   -6.2643 C.3     1  UNL1        0.1188
     18 C          56.5564   93.0055   -5.7438 C.2     1  UNL1       -0.0034
     19 C          56.4952   94.1737   -6.6828 C.2     1  UNL1       -0.0071
     20 C          63.8911   95.9026   -5.7035 C.3     1  UNL1        0.0556
     21 C          64.4480   94.5743   -6.1222 C.ar    1  UNL1       -0.0198
     22 C          63.9049   93.3109   -5.5232 C.ar    1  UNL1       -0.0011
     23 C          64.4618   91.9825   -5.9420 C.ar    1  UNL1        0.0363
     24 C          65.5618   91.9175   -6.9596 C.ar    1  UNL1        0.1337
     25 O          66.1186   90.5892   -7.3784 O.3     1  UNL1       -0.5055
     26 C          66.1049   93.1810   -7.5587 C.ar    1  UNL1        0.0363
     27 C          65.5480   94.5094   -7.1399 C.ar    1  UNL1       -0.0011
     28 H          65.7794   89.8000   -7.0042 H       1  UNL1        0.2922
     29 C          62.4671   96.4046   -0.7316 C.3     1  UNL1        0.1217
     30 C          62.8441   95.2172    0.1040 C.ar    1  UNL1        0.0135
     31 C          64.1835   94.5670   -0.0780 C.ar    1  UNL1       -0.0012
     32 C          64.5606   93.3797    0.7575 C.ar    1  UNL1       -0.0002
     33 C          63.5982   92.8426    1.7750 C.ar    1  UNL1        0.0016
     34 C          62.2587   93.4928    1.9569 C.ar    1  UNL1        0.0214
     35 C          61.1113   93.1880    2.8737 C.ar    1  UNL1        0.0722
     36 C          60.0251   94.1869    2.6048 C.ar    1  UNL1        0.0805
     37 N          60.5012   95.1091    1.5219 N.ar    1  UNL1       -0.3241
     38 C          59.7320   96.2585    0.9412 C.3     1  UNL1        0.1305
     39 C          61.8817   94.6801    1.1214 C.ar    1  UNL1        0.0577
     40 C          61.0592   92.0789    3.8824 C.2     1  UNL1        0.2510
     41 O          62.1968   91.1069    3.9877 O.2     1  UNL1       -0.2698
     42 N          59.8696   91.9419    4.7857 N.am    1  UNL1       -0.2791
     43 H          59.1230   92.5799    4.7166 H       1  UNL1        0.1552
     44 C          59.8174   90.8329    5.7943 C.ar    1  UNL1        0.0701
     45 C          58.7466   89.7864    5.7035 C.ar    1  UNL1        0.0191
     46 C          58.6944   88.6774    6.7121 C.ar    1  UNL1        0.0356
     47 C          59.7129   88.6148    7.8115 C.ar    1  UNL1        0.1319
     48 N          60.7837   89.6614    7.9023 N.ar    1  UNL1       -0.2279
     49 C          60.8360   90.7704    6.8937 C.ar    1  UNL1        0.1149
     50 N          59.6608   87.5059    8.8201 N.pl3   1  UNL1       -0.2889
     51 C          59.5545   86.0810    8.3634 C.3     1  UNL1        0.1137
     52 C          59.7149   87.8216   10.2855 C.3     1  UNL1        0.1239
     53 C          61.0371   87.8820   10.9914 C.3     1  UNL1        0.1585
     54 O          62.0758   88.8722   10.5548 O.3     1  UNL1       -0.3802
     55 H          62.3792   88.6495    9.6607 H       1  UNL1        0.2105
     56 C          55.2635   95.8202   -2.7358 C.3     1  UNL1        0.1177
     57 C          53.8309   95.9901   -3.1467 C.ar    1  UNL1       -0.0025
     58 C          52.7606   96.1118   -2.1028 C.ar    1  UNL1       -0.0026
     59 C          51.3281   96.2817   -2.5137 C.ar    1  UNL1       -0.0003
     60 C          50.9657   96.3300   -3.9685 C.ar    1  UNL1       -0.0000
     61 C          52.0360   96.2083   -5.0124 C.ar    1  UNL1       -0.0003
     62 C          53.4686   96.0384   -4.6015 C.ar    1  UNL1       -0.0026
@<TRIPOS>BOND
     1    18    19    2
     2    19    17    1
     3    17     1    1
     4     1     2    1
     5     2     3    1
     6     3     4    2
     7     3     5   am
     8     5     6    1
     9     6    20    1
    10    20    21    1
    11    21    22   ar
    12    22    23   ar
    13    23    24   ar
    14    24    25    1
    15    24    26   ar
    16    26    27   ar
    17     6     7    1
    18     7     8    2
    19     7     9   am
    20     9    29    1
    21    29    30    1
    22    30    31   ar
    23    31    32   ar
    24    32    33   ar
    25    33    34   ar
    26    34    35   ar
    27    35    40    1
    28    40    41    2
    29    40    42   am
    30    42    44    1
    31    44    45   ar
    32    45    46   ar
    33    46    47   ar
    34    47    50    1
    35    50    51    1
    36    50    52    1
    37    52    53    1
    38    53    54    1
    39    47    48   ar
    40    48    49   ar
    41    35    36   ar
    42    36    37   ar
    43    37    38    1
    44    37    39   ar
    45     9    10    1
    46    11    10    1
    47    11    12    1
    48    12    13   am
    49    13    14    2
    50    13    15   am
    51    15    56    1
    52    56    57    1
    53    57    58   ar
    54    58    59   ar
    55    59    60   ar
    56    60    61   ar
    57    61    62   ar
    58    12     1    1
    59    62    57   ar
    60    11     5    1
    61    27    21   ar
    62    39    30   ar
    63    39    34   ar
    64    49    44   ar
    65    25    28    1
    66    42    43    1
    67    54    55    1
    68    15    16    1
