@<TRIPOS>MOLECULE
*****
 45 49 0 0 0
SMALL
GASTEIGER

@<TRIPOS>ATOM
      1 C          65.1215   90.9704   13.6291 C.2     1  UNL1        0.2252
      2 O          65.5681   90.8027   15.0512 O.2     1  UNL1       -0.2749
      3 N          64.4634   89.8302   12.9103 N.am    1  UNL1       -0.2791
      4 C          63.9667   89.8492   11.4950 C.3     1  UNL1        0.0955
      5 C          63.3828   88.5015   11.1907 C.3     1  UNL1        0.0496
      6 C          63.5185   87.6495   12.4178 C.3     1  UNL1        0.1514
      7 C          63.1202   86.2322   12.7047 C.ar    1  UNL1       -0.0023
      8 C          62.4523   85.4110   11.6419 C.ar    1  UNL1        0.0265
      9 C          62.0541   83.9935   11.9289 C.ar    1  UNL1        0.1389
     10 F          61.3862   83.1723   10.8661 F       1  UNL1       -0.2044
     11 C          62.3236   83.3973   13.2786 C.ar    1  UNL1        0.0506
     12 C          62.9915   84.2185   14.3414 C.ar    1  UNL1       -0.0035
     13 C          63.3898   85.6359   14.0545 C.ar    1  UNL1       -0.0246
     14 C          64.0577   86.4571   15.1173 C.3     1  UNL1        0.0278
     15 C          64.4560   87.8746   14.8303 C.3     1  UNL1        0.0265
     16 C          64.1864   88.4707   13.4806 C.3     1  UNL1        0.1001
     17 C          66.6589   93.1664   14.9760 C.3     1  UNL1        0.0005
     18 C          66.1018   93.3763   13.5992 C.3     1  UNL1        0.0090
     19 C          66.3133   94.6842   12.8959 C.3     1  UNL1        0.0060
     20 C          65.7561   94.8941   11.5191 C.3     1  UNL1        0.0366
     21 C          64.9874   93.7961   10.8456 C.3     1  UNL1        0.0060
     22 C          64.7759   92.4882   11.5491 C.3     1  UNL1        0.0094
     23 C          65.3331   92.2783   12.9258 C.3     1  UNL1        0.0767
     24 C          65.9677   96.2020   10.8158 C.2     1  UNL1        0.0500
     25 O          67.3174   96.8559   10.8383 O.co2   1  UNL1       -0.5492
     26 O          64.8294   96.8560   10.0901 O.co2   1  UNL1       -0.5492
     27 S          62.8620   86.9543   11.2620 S.O2    1  UNL1        0.0106
     28 O          63.4462   86.5146   10.9443 O.2     1  UNL1       -0.1684
     29 O          61.5655   87.6337   11.5898 O.2     1  UNL1       -0.1684
     30 C          62.2056   86.2592   10.1062 C.ar    1  UNL1        0.1059
     31 C          60.7468   86.4746    9.8319 C.ar    1  UNL1        0.0184
     32 C          60.0903   85.7794    8.6761 C.ar    1  UNL1        0.0013
     33 C          60.8927   84.8688    7.7947 C.ar    1  UNL1        0.0001
     34 C          62.3515   84.6534    8.0690 C.ar    1  UNL1        0.0013
     35 C          63.0080   85.3486    9.2248 C.ar    1  UNL1        0.0184
     36 C          61.9254   81.9800   13.5655 C.3     1  UNL1        0.3262
     37 F          60.9475   82.4632   14.5952 F       1  UNL1       -0.2175
     38 C          61.5271   80.5625   13.8525 C.3     1  UNL1        0.4363
     39 F          61.1288   79.1451   14.1393 F       1  UNL1       -0.1666
     40 F          60.0812   80.9578   13.7980 F       1  UNL1       -0.1666
     41 F          62.9137   79.9974   13.9414 F       1  UNL1       -0.1666
     42 C          62.9032   81.4967   12.5359 C.3     1  UNL1        0.4363
     43 F          63.8811   81.0135   11.5061 F       1  UNL1       -0.1666
     44 F          61.9285   80.7052   11.7152 F       1  UNL1       -0.1666
     45 F          64.2093   82.0959   12.9661 F       1  UNL1       -0.1666
@<TRIPOS>UNITY_ATOM_ATTR
25 1
charge -1
@<TRIPOS>BOND
     1    18    17    1
     2    18    19    1
     3    19    20    1
     4    20    24    1
     5    24    25   ar
     6    24    26   ar
     7    20    21    1
     8    21    22    1
     9    22    23    1
    10    23     1    1
    11     1     2    2
    12     1     3   am
    13     3     4    1
    14     4     5    1
    15     5     6    1
    16     6    27    1
    17    27    28    2
    18    27    29    2
    19    27    30    1
    20    30    31   ar
    21    31    32   ar
    22    32    33   ar
    23    33    34   ar
    24    34    35   ar
    25     6     7    1
    26     7     8   ar
    27     8     9   ar
    28     9    10    1
    29     9    11   ar
    30    11    36    1
    31    36    37    1
    32    36    38    1
    33    38    39    1
    34    38    40    1
    35    38    41    1
    36    36    42    1
    37    42    43    1
    38    42    44    1
    39    42    45    1
    40    11    12   ar
    41    12    13   ar
    42    13    14    1
    43    14    15    1
    44    16    15    1
    45    23    18    1
    46    16     3    1
    47    16     6    1
    48    35    30   ar
    49    13     7   ar
@<TRIPOS>MOLECULE
*****
 45 49 0 0 0
SMALL
GASTEIGER

@<TRIPOS>ATOM
      1 C          59.2553   90.1090    6.3481 C.2     1  UNL1        0.2252
      2 O          57.7666   90.0476    6.1747 O.2     1  UNL1       -0.2749
      3 N          60.0992   90.8264    5.3365 N.am    1  UNL1       -0.2791
      4 C          61.5917   90.9704    5.3764 C.3     1  UNL1        0.0955
      5 C          62.0136   91.7588    4.1720 C.3     1  UNL1        0.0496
      6 C          60.7818   92.1021    3.3879 C.3     1  UNL1        0.1514
      7 C          60.5847   92.8650    2.1116 C.ar    1  UNL1       -0.0023
      8 C          61.7679   93.4412    1.3918 C.ar    1  UNL1        0.0265
      9 C          61.5707   94.2041    0.1154 C.ar    1  UNL1        0.1389
     10 F          62.7539   94.7804   -0.6043 F       1  UNL1       -0.2044
     11 C          60.1904   94.3908   -0.4412 C.ar    1  UNL1        0.0506
     12 C          59.0072   93.8145    0.2785 C.ar    1  UNL1       -0.0035
     13 C          59.2044   93.0517    1.5549 C.ar    1  UNL1       -0.0246
     14 C          58.0212   92.4754    2.2746 C.3     1  UNL1        0.0278
     15 C          58.2183   91.7125    3.5510 C.3     1  UNL1        0.0265
     16 C          59.5986   91.5259    4.1076 C.3     1  UNL1        0.1001
     17 C          59.1461   87.1267    6.6553 C.3     1  UNL1        0.0005
     18 C          59.8455   87.9618    7.6866 C.3     1  UNL1        0.0090
     19 C          60.4904   87.3058    8.8714 C.3     1  UNL1        0.0060
     20 C          61.1898   88.1409    9.9026 C.3     1  UNL1        0.0366
     21 C          61.2444   89.6320    9.7490 C.3     1  UNL1        0.0060
     22 C          60.5995   90.2880    8.5641 C.3     1  UNL1        0.0094
     23 C          59.9001   89.4529    7.5329 C.3     1  UNL1        0.0767
     24 C          61.8346   87.4849   11.0874 C.2     1  UNL1        0.0500
     25 O          62.8968   88.2093   11.8600 O.co2   1  UNL1       -0.5492
     26 O          61.4172   86.1044   11.4997 O.co2   1  UNL1       -0.5492
     27 S          62.0537   92.6179    2.7828 S.O2    1  UNL1        0.0106
     28 O          62.1146   93.3607    3.0656 O.2     1  UNL1       -0.1684
     29 O          62.2529   91.3060    2.0833 O.2     1  UNL1       -0.1684
     30 C          63.3257   93.1337    2.1776 C.ar    1  UNL1        0.1059
     31 C          64.0932   92.2846    1.2082 C.ar    1  UNL1        0.0184
     32 C          65.3651   92.8004    0.6030 C.ar    1  UNL1        0.0013
     33 C          65.8695   94.1653    0.9674 C.ar    1  UNL1        0.0001
     34 C          65.1020   95.0143    1.9368 C.ar    1  UNL1        0.0013
     35 C          63.8300   94.4985    2.5420 C.ar    1  UNL1        0.0184
     36 C          59.9933   95.1536   -1.7176 C.3     1  UNL1        0.3262
     37 F          60.4818   96.4029   -1.0463 F       1  UNL1       -0.2175
     38 C          59.7962   95.9165   -2.9940 C.3     1  UNL1        0.4363
     39 F          59.5991   96.6794   -4.2704 F       1  UNL1       -0.1666
     40 F          58.7977   96.8027   -2.3101 F       1  UNL1       -0.1666
     41 F          60.7632   95.1299   -3.8283 F       1  UNL1       -0.1666
     42 C          59.5049   93.9044   -2.3888 C.3     1  UNL1        0.4363
     43 F          59.0164   92.6550   -3.0602 F       1  UNL1       -0.1666
     44 F          60.7844   93.1285   -2.2846 F       1  UNL1       -0.1666
     45 F          58.0777   94.2116   -2.7332 F       1  UNL1       -0.1666
@<TRIPOS>UNITY_ATOM_ATTR
25 1
charge -1
@<TRIPOS>BOND
     1    18    17    1
     2    18    19    1
     3    19    20    1
     4    20    24    1
     5    24    25   ar
     6    24    26   ar
     7    20    21    1
     8    21    22    1
     9    22    23    1
    10    23     1    1
    11     1     2    2
    12     1     3   am
    13     3     4    1
    14     4     5    1
    15     5     6    1
    16     6    27    1
    17    27    28    2
    18    27    29    2
    19    27    30    1
    20    30    31   ar
    21    31    32   ar
    22    32    33   ar
    23    33    34   ar
    24    34    35   ar
    25     6     7    1
    26     7     8   ar
    27     8     9   ar
    28     9    10    1
    29     9    11   ar
    30    11    36    1
    31    36    37    1
    32    36    38    1
    33    38    39    1
    34    38    40    1
    35    38    41    1
    36    36    42    1
    37    42    43    1
    38    42    44    1
    39    42    45    1
    40    11    12   ar
    41    12    13   ar
    42    13    14    1
    43    14    15    1
    44    16    15    1
    45    23    18    1
    46    16     3    1
    47    16     6    1
    48    35    30   ar
    49    13     7   ar
@<TRIPOS>MOLECULE
*****
 45 49 0 0 0
SMALL
GASTEIGER

@<TRIPOS>ATOM
      1 C          60.1056   88.8925    6.6711 C.2     1  UNL1        0.2252
      2 O          59.5507   87.5684    6.2365 O.2     1  UNL1       -0.2749
      3 N          60.8237   89.0107    7.9827 N.am    1  UNL1       -0.2791
      4 C          61.4288   90.2619    8.5469 C.3     1  UNL1        0.0955
      5 C          62.0419   89.9229    9.8733 C.3     1  UNL1        0.0496
      6 C          61.8157   88.4623   10.1288 C.3     1  UNL1        0.1514
      7 C          62.1980   87.5727   11.2744 C.ar    1  UNL1       -0.0023
      8 C          62.9509   88.1365   12.4429 C.ar    1  UNL1        0.0265
      9 C          63.3332   87.2469   13.5886 C.ar    1  UNL1        0.1389
     10 F          64.0861   87.8107   14.7571 F       1  UNL1       -0.2044
     11 C          62.9627   85.7936   13.5657 C.ar    1  UNL1        0.0506
     12 C          62.2098   85.2298   12.3973 C.ar    1  UNL1       -0.0035
     13 C          61.8275   86.1194   11.2516 C.ar    1  UNL1       -0.0246
     14 C          61.0746   85.5556   10.0832 C.3     1  UNL1        0.0278
     15 C          60.6923   86.4452    8.9375 C.3     1  UNL1        0.0265
     16 C          61.0628   87.8985    8.9603 C.3     1  UNL1        0.1001
     17 C          57.3809   90.0668    6.2270 C.3     1  UNL1        0.0005
     18 C          58.5801   90.6856    5.5720 C.3     1  UNL1        0.0090
     19 C          58.4170   91.8914    4.6949 C.3     1  UNL1        0.0060
     20 C          59.6161   92.5101    4.0398 C.3     1  UNL1        0.0366
     21 C          60.9785   91.9230    4.2618 C.3     1  UNL1        0.0060
     22 C          61.1416   90.7171    5.1389 C.3     1  UNL1        0.0094
     23 C          59.9424   90.0984    5.7940 C.3     1  UNL1        0.0767
     24 C          59.4529   93.7160    3.1627 C.2     1  UNL1        0.0500
     25 O          59.0522   93.5503    1.7268 O.co2   1  UNL1       -0.5492
     26 O          59.6905   95.0876    3.7216 O.co2   1  UNL1       -0.5492
     27 S          62.5637   89.1644   11.2231 S.O2    1  UNL1        0.0106
     28 O          63.3248   89.1320   10.9880 O.2     1  UNL1       -0.1684
     29 O          61.2744   89.4022   11.9518 O.2     1  UNL1       -0.1684
     30 C          63.3118   89.8665   12.3174 C.ar    1  UNL1        0.1059
     31 C          62.6928   90.0106   13.6760 C.ar    1  UNL1        0.0184
     32 C          63.4408   90.7127   14.7704 C.ar    1  UNL1        0.0013
     33 C          64.8078   91.2706   14.5060 C.ar    1  UNL1        0.0001
     34 C          65.4269   91.1265   13.1473 C.ar    1  UNL1        0.0013
     35 C          64.6788   90.4244   12.0530 C.ar    1  UNL1        0.0184
     36 C          63.3450   84.9041   14.7114 C.3     1  UNL1        0.3262
     37 F          61.9299   84.9355   15.2080 F       1  UNL1       -0.2175
     38 C          63.7274   84.0146   15.8571 C.3     1  UNL1        0.4363
     39 F          64.1097   83.1251   17.0027 F       1  UNL1       -0.1666
     40 F          63.2933   85.0749   16.8252 F       1  UNL1       -0.1666
     41 F          64.2048   82.8538   15.0358 F       1  UNL1       -0.1666
     42 C          64.7600   84.8728   14.2148 C.3     1  UNL1        0.4363
     43 F          66.1751   84.8414   13.7182 F       1  UNL1       -0.1666
     44 F          65.3760   85.6027   15.3715 F       1  UNL1       -0.1666
     45 F          64.6690   84.1479   12.9047 F       1  UNL1       -0.1666
@<TRIPOS>UNITY_ATOM_ATTR
25 1
charge -1
@<TRIPOS>BOND
     1    18    17    1
     2    18    19    1
     3    19    20    1
     4    20    24    1
     5    24    25   ar
     6    24    26   ar
     7    20    21    1
     8    21    22    1
     9    22    23    1
    10    23     1    1
    11     1     2    2
    12     1     3   am
    13     3     4    1
    14     4     5    1
    15     5     6    1
    16     6    27    1
    17    27    28    2
    18    27    29    2
    19    27    30    1
    20    30    31   ar
    21    31    32   ar
    22    32    33   ar
    23    33    34   ar
    24    34    35   ar
    25     6     7    1
    26     7     8   ar
    27     8     9   ar
    28     9    10    1
    29     9    11   ar
    30    11    36    1
    31    36    37    1
    32    36    38    1
    33    38    39    1
    34    38    40    1
    35    38    41    1
    36    36    42    1
    37    42    43    1
    38    42    44    1
    39    42    45    1
    40    11    12   ar
    41    12    13   ar
    42    13    14    1
    43    14    15    1
    44    16    15    1
    45    23    18    1
    46    16     3    1
    47    16     6    1
    48    35    30   ar
    49    13     7   ar
