@<TRIPOS>MOLECULE
*****
 56 63 0 0 0
SMALL
GASTEIGER

@<TRIPOS>ATOM
      1 C          62.7268   84.5638   12.6374 C.ar    1  UNL1        0.0558
      2 C          62.2556   83.1844   12.9909 C.ar    1  UNL1        0.0413
      3 C          62.4559   82.6566   14.3806 C.ar    1  UNL1        0.1392
      4 C          63.1275   83.5083   15.4168 C.ar    1  UNL1        0.0382
      5 C          63.5987   84.8877   15.0633 C.ar    1  UNL1        0.0179
      6 C          63.3984   85.4155   13.6736 C.ar    1  UNL1        0.0539
      7 N          61.6487   86.3270    9.3519 N.ar    1  UNL1       -0.1285
      8 N          62.7879   85.4807    8.8663 N.ar    1  UNL1       -0.0406
      9 N          63.3304   84.7171   10.0379 N.ar    1  UNL1       -0.1074
     10 C          62.5265   85.0916   11.2477 C.ar    1  UNL1        0.2075
     11 N          61.4872   86.0866   10.8237 N.ar    1  UNL1       -0.1253
     12 C          59.1538   89.1006    6.8354 C.ar    1  UNL1       -0.0207
     13 C          60.0261   89.6548    7.9226 C.ar    1  UNL1       -0.0026
     14 C          60.8577   88.7302    8.7614 C.ar    1  UNL1        0.0206
     15 C          60.8171   87.2515    8.5131 C.ar    1  UNL1        0.1045
     16 C          59.9448   86.6973    7.4259 C.ar    1  UNL1        0.0206
     17 C          59.1132   87.6218    6.5871 C.ar    1  UNL1       -0.0026
     18 C          58.3222   90.0251    5.9966 C.3     1  UNL1        0.0437
     19 C          58.7724   91.4371    5.7652 C.3     1  UNL1        0.0771
     20 C          62.5392   93.6119    0.4425 C.ar    1  UNL1        0.1721
     21 C          62.8531   92.6288    1.5310 C.ar    1  UNL1        0.0356
     22 C          61.8329   92.3309    2.5896 C.ar    1  UNL1       -0.0202
     23 C          60.4989   93.0161    2.5596 C.ar    1  UNL1       -0.0068
     24 C          60.1851   93.9992    1.4710 C.ar    1  UNL1        0.0368
     25 C          61.2052   94.2971    0.4125 C.ar    1  UNL1        0.1721
     26 C          59.4787   92.7181    3.6181 C.3     1  UNL1        0.0990
     27 N          59.7926   91.7350    4.7066 N.3     1  UNL1       -0.2683
     28 C          61.1266   91.0498    4.7366 C.3     1  UNL1        0.0771
     29 C          62.1468   91.3477    3.6781 C.3     1  UNL1        0.0435
     30 C          64.7081   94.8260   -0.3140 C.3     1  UNL1        0.2526
     31 O          63.5594   93.9099   -0.6161 O.3     1  UNL1       -0.4684
     32 O          60.8914   95.2803   -0.6761 O.3     1  UNL1       -0.4684
     33 C          60.3712   94.7960   -1.9970 C.3     1  UNL1        0.2526
     34 N          63.8697   86.7950   13.3200 N.am    1  UNL1       -0.2778
     35 C          63.9066   87.8667   14.3689 C.2     1  UNL1        0.2843
     36 O          63.4722   87.5590   15.7712 O.2     1  UNL1       -0.2665
     37 H          64.1548   86.9970   12.3996 H       1  UNL1        0.1553
     38 C          64.3778   89.2462   14.0154 C.ar    1  UNL1        0.2017
     39 C          63.8834   89.9100   12.7644 C.ar    1  UNL1        0.0843
     40 C          64.3546   91.2895   12.4109 C.ar    1  UNL1        0.2018
     41 O          63.8601   91.9534   11.1599 O.2     1  UNL1       -0.2864
     42 C          65.3202   92.0051   13.3084 C.ar    1  UNL1        0.0735
     43 C          65.7914   93.3847   12.9548 C.ar    1  UNL1        0.0062
     44 C          66.7571   94.1003   13.8523 C.ar    1  UNL1        0.0003
     45 C          67.2515   93.4365   15.1032 C.ar    1  UNL1        0.0031
     46 C          66.7802   92.0570   15.4568 C.ar    1  UNL1        0.0376
     47 C          65.8146   91.3413   14.5593 C.ar    1  UNL1        0.1485
     48 O          65.3434   89.9619   14.9128 O.2     1  UNL1       -0.4487
     49 O          61.9847   81.2771   14.7341 O.3     1  UNL1       -0.4706
     50 C          62.6693   80.0777   14.1488 C.3     1  UNL1        0.2321
     51 C          62.7561   79.9158   12.6600 C.ar    1  UNL1        0.0242
     52 C          62.4373   78.5925   12.0297 C.ar    1  UNL1        0.0200
     53 C          62.5241   78.4306   10.5410 C.ar    1  UNL1        0.0987
     54 N          62.9296   79.5919    9.6827 N.ar    1  UNL1       -0.2423
     55 C          63.2484   80.9152   10.3130 C.ar    1  UNL1        0.0987
     56 C          63.1617   81.0771   11.8016 C.ar    1  UNL1        0.0200
@<TRIPOS>BOND
     1    30    31    1
     2    31    20    1
     3    20    21   ar
     4    21    22   ar
     5    22    23   ar
     6    23    24   ar
     7    24    25   ar
     8    25    32    1
     9    32    33    1
    10    23    26    1
    11    26    27    1
    12    27    19    1
    13    19    18    1
    14    18    12    1
    15    12    13   ar
    16    13    14   ar
    17    14    15   ar
    18    15     7    1
    19     7     8   ar
    20     8     9   ar
    21     9    10   ar
    22    10     1    1
    23     1     2   ar
    24     2     3   ar
    25     3    49    1
    26    49    50    1
    27    50    51    1
    28    51    52   ar
    29    52    53   ar
    30    53    54   ar
    31    54    55   ar
    32    55    56   ar
    33     3     4   ar
    34     4     5   ar
    35     5     6   ar
    36     6    34    1
    37    34    35   am
    38    35    36    2
    39    35    38    1
    40    38    39   ar
    41    39    40   ar
    42    40    41    2
    43    40    42   ar
    44    42    43   ar
    45    43    44   ar
    46    44    45   ar
    47    45    46   ar
    48    46    47   ar
    49    47    48   ar
    50    10    11   ar
    51    15    16   ar
    52    16    17   ar
    53    27    28    1
    54    28    29    1
    55    25    20   ar
    56    17    12   ar
    57    29    22    1
    58    11     7   ar
    59     6     1   ar
    60    48    38   ar
    61    56    51   ar
    62    47    42   ar
    63    34    37    1
@<TRIPOS>MOLECULE
*****
 56 63 0 0 0
SMALL
GASTEIGER

@<TRIPOS>ATOM
      1 C          62.7538   84.8794   12.7072 C.ar    1  UNL1        0.0558
      2 C          62.2527   83.5175   13.0865 C.ar    1  UNL1        0.0413
      3 C          62.4479   83.0089   14.4841 C.ar    1  UNL1        0.1392
      4 C          63.1442   83.8622   15.5024 C.ar    1  UNL1        0.0382
      5 C          63.6453   85.2242   15.1231 C.ar    1  UNL1        0.0179
      6 C          63.4501   85.7328   13.7255 C.ar    1  UNL1        0.0539
      7 N          61.6763   86.5832    9.3904 N.ar    1  UNL1       -0.1285
      8 N          62.8403   85.7581    8.9275 N.ar    1  UNL1       -0.0406
      9 N          63.3856   85.0195   10.1137 N.ar    1  UNL1       -0.1074
     10 C          62.5586   85.3880   11.3096 C.ar    1  UNL1        0.2075
     11 N          61.5022   86.3545   10.8626 N.ar    1  UNL1       -0.1253
     12 C          59.1500   89.2726    6.8145 C.ar    1  UNL1       -0.0207
     13 C          59.9864   89.8566    7.9142 C.ar    1  UNL1       -0.0026
     14 C          60.8285   88.9601    8.7729 C.ar    1  UNL1        0.0206
     15 C          60.8342   87.4796    8.5318 C.ar    1  UNL1        0.1045
     16 C          59.9978   86.8956    7.4321 C.ar    1  UNL1        0.0206
     17 C          59.1557   87.7920    6.5735 C.ar    1  UNL1       -0.0026
     18 C          58.3079   90.1690    5.9559 C.3     1  UNL1        0.0437
     19 C          58.7596   91.5694    5.6646 C.3     1  UNL1        0.0771
     20 C          62.7019   93.5105    0.3787 C.ar    1  UNL1        0.1721
     21 C          62.9708   92.5593    1.5069 C.ar    1  UNL1        0.0356
     22 C          61.9180   92.3118    2.5464 C.ar    1  UNL1       -0.0202
     23 C          60.5963   93.0155    2.4576 C.ar    1  UNL1       -0.0068
     24 C          60.3274   93.9668    1.3293 C.ar    1  UNL1        0.0368
     25 C          61.3802   94.2142    0.2899 C.ar    1  UNL1        0.1721
     26 C          59.5435   92.7681    3.4970 C.3     1  UNL1        0.0990
     27 N          59.8125   91.8169    4.6252 N.3     1  UNL1       -0.2683
     28 C          61.1341   91.1131    4.7140 C.3     1  UNL1        0.0771
     29 C          62.1869   91.3606    3.6746 C.3     1  UNL1        0.0435
     30 C          64.6648   94.9440   -0.5388 C.3     1  UNL1        0.2526
     31 O          63.7547   93.7579   -0.6608 O.3     1  UNL1       -0.4684
     32 O          61.1113   95.1654   -0.8384 O.3     1  UNL1       -0.4684
     33 C          61.1538   96.6454   -0.5978 C.3     1  UNL1        0.2526
     34 N          63.9513   87.0948   13.3462 N.am    1  UNL1       -0.2778
     35 C          63.9830   88.1934   14.3670 C.2     1  UNL1        0.2843
     36 O          63.5136   87.9300   15.7671 O.2     1  UNL1       -0.2665
     37 H          64.2593   87.2677   12.4272 H       1  UNL1        0.1553
     38 C          64.4841   89.5554   13.9878 C.ar    1  UNL1        0.2017
     39 C          65.1804   90.4087   15.0061 C.ar    1  UNL1        0.0843
     40 C          65.6815   91.7707   14.6269 C.ar    1  UNL1        0.2018
     41 O          66.3779   92.6241   15.6452 O.2     1  UNL1       -0.2864
     42 C          65.4863   92.2794   13.2293 C.ar    1  UNL1        0.0735
     43 C          65.9875   93.6415   12.8501 C.ar    1  UNL1        0.0062
     44 C          65.7923   94.1501   11.4526 C.ar    1  UNL1        0.0003
     45 C          65.0959   93.2968   10.4342 C.ar    1  UNL1        0.0031
     46 C          64.5948   91.9348   10.8135 C.ar    1  UNL1        0.0376
     47 C          64.7900   91.4261   12.2110 C.ar    1  UNL1        0.1485
     48 O          64.2889   90.0641   12.5902 O.2     1  UNL1       -0.4487
     49 O          61.9468   81.6469   14.8633 O.3     1  UNL1       -0.4706
     50 C          62.6053   80.4220   14.3011 C.3     1  UNL1        0.2321
     51 C          62.7558   80.2658   12.8168 C.ar    1  UNL1        0.0242
     52 C          63.2096   81.4268   11.9827 C.ar    1  UNL1        0.0200
     53 C          63.3601   81.2706   10.4985 C.ar    1  UNL1        0.0987
     54 N          63.0568   79.9533    9.8484 N.ar    1  UNL1       -0.2423
     55 C          62.6029   78.7922   10.6825 C.ar    1  UNL1        0.0987
     56 C          62.4524   78.9484   12.1667 C.ar    1  UNL1        0.0200
@<TRIPOS>BOND
     1    30    31    1
     2    31    20    1
     3    20    21   ar
     4    21    22   ar
     5    22    23   ar
     6    23    24   ar
     7    24    25   ar
     8    25    32    1
     9    32    33    1
    10    23    26    1
    11    26    27    1
    12    27    19    1
    13    19    18    1
    14    18    12    1
    15    12    13   ar
    16    13    14   ar
    17    14    15   ar
    18    15     7    1
    19     7     8   ar
    20     8     9   ar
    21     9    10   ar
    22    10     1    1
    23     1     2   ar
    24     2     3   ar
    25     3    49    1
    26    49    50    1
    27    50    51    1
    28    51    52   ar
    29    52    53   ar
    30    53    54   ar
    31    54    55   ar
    32    55    56   ar
    33     3     4   ar
    34     4     5   ar
    35     5     6   ar
    36     6    34    1
    37    34    35   am
    38    35    36    2
    39    35    38    1
    40    38    39   ar
    41    39    40   ar
    42    40    41    2
    43    40    42   ar
    44    42    43   ar
    45    43    44   ar
    46    44    45   ar
    47    45    46   ar
    48    46    47   ar
    49    47    48   ar
    50    10    11   ar
    51    15    16   ar
    52    16    17   ar
    53    27    28    1
    54    28    29    1
    55    25    20   ar
    56    17    12   ar
    57    29    22    1
    58    11     7   ar
    59     6     1   ar
    60    48    38   ar
    61    56    51   ar
    62    47    42   ar
    63    34    37    1
@<TRIPOS>MOLECULE
*****
 56 63 0 0 0
SMALL
GASTEIGER

@<TRIPOS>ATOM
      1 C          60.8226   95.1039   -1.6422 C.ar    1  UNL1        0.0558
      2 C          62.3152   94.9737   -1.7128 C.ar    1  UNL1        0.0413
      3 C          63.0926   95.7846   -2.7068 C.ar    1  UNL1        0.1392
      4 C          62.3774   96.7258   -3.6302 C.ar    1  UNL1        0.0382
      5 C          60.8848   96.8560   -3.5596 C.ar    1  UNL1        0.0179
      6 C          60.1073   96.0450   -2.5656 C.ar    1  UNL1        0.0539
      7 N          59.4384   93.0478    1.3448 N.ar    1  UNL1       -0.1285
      8 N          58.2591   93.0421    0.4178 N.ar    1  UNL1       -0.0406
      9 N          58.6341   93.8116   -0.8140 N.ar    1  UNL1       -0.1074
     10 C          60.0451   94.2929   -0.6483 C.ar    1  UNL1        0.2075
     11 N          60.5422   93.8208    0.6859 N.ar    1  UNL1       -0.1253
     12 C          59.6309   91.0896    5.3918 C.ar    1  UNL1       -0.0207
     13 C          60.8894   91.3166    4.6078 C.ar    1  UNL1       -0.0026
     14 C          60.8252   91.9694    3.2587 C.ar    1  UNL1        0.0206
     15 C          59.5025   92.3951    2.6937 C.ar    1  UNL1        0.1045
     16 C          58.2440   92.1681    3.4777 C.ar    1  UNL1        0.0206
     17 C          58.3082   91.5153    4.8267 C.ar    1  UNL1       -0.0026
     18 C          59.6951   90.4368    6.7407 C.3     1  UNL1        0.0437
     19 C          59.4370   88.9653    6.8749 C.3     1  UNL1        0.0771
     20 C          62.9035   86.5396   12.2924 C.ar    1  UNL1        0.1721
     21 C          62.1531   85.8261   11.2072 C.ar    1  UNL1        0.0356
     22 C          61.4741   86.6109   10.1241 C.ar    1  UNL1       -0.0202
     23 C          61.5455   88.1092   10.1263 C.ar    1  UNL1       -0.0068
     24 C          62.2959   88.8227   11.2116 C.ar    1  UNL1        0.0368
     25 C          62.9749   88.0379   12.2947 C.ar    1  UNL1        0.1721
     26 C          60.8665   88.8940    9.0433 C.3     1  UNL1        0.0990
     27 N          60.1161   88.1805    7.9580 N.3     1  UNL1       -0.2683
     28 C          60.0447   86.6822    7.9558 C.3     1  UNL1        0.0771
     29 C          60.7237   85.8974    9.0388 C.3     1  UNL1        0.0435
     30 C          62.9911   84.4591   13.8462 C.3     1  UNL1        0.2526
     31 O          63.5826   85.7547   13.3755 O.3     1  UNL1       -0.4684
     32 O          63.7253   88.7513   13.3800 O.3     1  UNL1       -0.4684
     33 C          63.8903   90.2412   13.3231 C.3     1  UNL1        0.2526
     34 N          58.6146   96.1752   -2.4950 N.am    1  UNL1       -0.2778
     35 C          57.7663   95.7118   -3.6420 C.2     1  UNL1        0.2843
     36 O          58.4106   95.1181   -4.8595 O.2     1  UNL1       -0.2665
     37 H          58.1917   96.5649   -1.6959 H       1  UNL1        0.1553
     38 C          56.2736   95.8419   -3.5715 C.ar    1  UNL1        0.2017
     39 C          55.5861   95.8784   -2.2388 C.ar    1  UNL1        0.0843
     40 C          54.0935   96.0086   -2.1682 C.ar    1  UNL1        0.2018
     41 O          53.4059   96.0450   -0.8355 O.2     1  UNL1       -0.2864
     42 C          53.2883   96.1023   -3.4304 C.ar    1  UNL1        0.0735
     43 C          51.7956   96.2325   -3.3598 C.ar    1  UNL1        0.0062
     44 C          50.9904   96.3262   -4.6219 C.ar    1  UNL1        0.0003
     45 C          51.6779   96.2898   -5.9545 C.ar    1  UNL1        0.0031
     46 C          53.1706   96.1596   -6.0251 C.ar    1  UNL1        0.0376
     47 C          53.9758   96.0658   -4.7630 C.ar    1  UNL1        0.1485
     48 O          55.4684   95.9357   -4.8336 O.2     1  UNL1       -0.4487
     49 O          64.5853   95.6544   -2.7773 O.3     1  UNL1       -0.4706
     50 C          65.4418   96.2489   -1.6989 C.3     1  UNL1        0.2321
     51 C          65.2516   95.8270   -0.2720 C.ar    1  UNL1        0.0242
     52 C          65.0712   94.3763    0.0634 C.ar    1  UNL1        0.0200
     53 C          64.8810   93.9544    1.4902 C.ar    1  UNL1        0.0987
     54 N          64.8713   94.9833    2.5816 N.ar    1  UNL1       -0.2423
     55 C          65.0518   96.4342    2.2461 C.ar    1  UNL1        0.0987
     56 C          65.2419   96.8560    0.8194 C.ar    1  UNL1        0.0200
@<TRIPOS>BOND
     1    30    31    1
     2    31    20    1
     3    20    21   ar
     4    21    22   ar
     5    22    23   ar
     6    23    24   ar
     7    24    25   ar
     8    25    32    1
     9    32    33    1
    10    23    26    1
    11    26    27    1
    12    27    19    1
    13    19    18    1
    14    18    12    1
    15    12    13   ar
    16    13    14   ar
    17    14    15   ar
    18    15     7    1
    19     7     8   ar
    20     8     9   ar
    21     9    10   ar
    22    10     1    1
    23     1     2   ar
    24     2     3   ar
    25     3    49    1
    26    49    50    1
    27    50    51    1
    28    51    52   ar
    29    52    53   ar
    30    53    54   ar
    31    54    55   ar
    32    55    56   ar
    33     3     4   ar
    34     4     5   ar
    35     5     6   ar
    36     6    34    1
    37    34    35   am
    38    35    36    2
    39    35    38    1
    40    38    39   ar
    41    39    40   ar
    42    40    41    2
    43    40    42   ar
    44    42    43   ar
    45    43    44   ar
    46    44    45   ar
    47    45    46   ar
    48    46    47   ar
    49    47    48   ar
    50    10    11   ar
    51    15    16   ar
    52    16    17   ar
    53    27    28    1
    54    28    29    1
    55    25    20   ar
    56    17    12   ar
    57    29    22    1
    58    11     7   ar
    59     6     1   ar
    60    48    38   ar
    61    56    51   ar
    62    47    42   ar
    63    34    37    1
@<TRIPOS>MOLECULE
*****
 56 63 0 0 0
SMALL
GASTEIGER

@<TRIPOS>ATOM
      1 C          63.1164   88.1098   13.0783 C.ar    1  UNL1        0.0558
      2 C          63.2021   89.5168   13.5911 C.ar    1  UNL1        0.0413
      3 C          64.0456   89.8273   14.7919 C.ar    1  UNL1        0.1392
      4 C          64.8035   88.7309   15.4800 C.ar    1  UNL1        0.0382
      5 C          64.7178   87.3239   14.9672 C.ar    1  UNL1        0.0179
      6 C          63.8743   87.0134   13.7664 C.ar    1  UNL1        0.0539
      7 N          60.9869   88.0452    9.8339 N.ar    1  UNL1       -0.1285
      8 N          60.9629   86.5974   10.2252 N.ar    1  UNL1       -0.0406
      9 N          61.7577   86.4453   11.4881 N.ar    1  UNL1       -0.1074
     10 C          62.2729   87.7993   11.8775 C.ar    1  UNL1        0.2075
     11 N          61.7965   88.7880   10.8551 N.ar    1  UNL1       -0.1253
     12 C          58.9818   89.8445    6.2294 C.ar    1  UNL1       -0.0207
     13 C          58.7842   88.3927    6.5510 C.ar    1  UNL1       -0.0026
     14 C          59.4525   87.7930    7.7526 C.ar    1  UNL1        0.0206
     15 C          60.3185   88.6450    8.6324 C.ar    1  UNL1        0.1045
     16 C          60.5162   90.0967    8.3107 C.ar    1  UNL1        0.0206
     17 C          59.8479   90.6964    7.1093 C.ar    1  UNL1       -0.0026
     18 C          58.3135   90.4442    5.0279 C.3     1  UNL1        0.0437
     19 C          58.6130   91.8595    4.6315 C.3     1  UNL1        0.0771
     20 C          63.3915   94.0628    0.2086 C.ar    1  UNL1        0.1721
     21 C          63.4806   93.0886    1.3458 C.ar    1  UNL1        0.0356
     22 C          62.2637   92.7813    2.1672 C.ar    1  UNL1       -0.0202
     23 C          60.9577   93.4482    1.8515 C.ar    1  UNL1       -0.0068
     24 C          60.8687   94.4224    0.7143 C.ar    1  UNL1        0.0368
     25 C          62.0855   94.7296   -0.1071 C.ar    1  UNL1        0.1721
     26 C          59.7408   93.1410    2.6729 C.3     1  UNL1        0.0990
     27 N          59.8299   92.1668    3.8100 N.3     1  UNL1       -0.2683
     28 C          61.1359   91.5000    4.1257 C.3     1  UNL1        0.0771
     29 C          62.3528   91.8072    3.3043 C.3     1  UNL1        0.0435
     30 C          65.3317   95.6706   -0.4244 C.3     1  UNL1        0.2526
     31 O          64.6085   94.3701   -0.6128 O.3     1  UNL1       -0.4684
     32 O          61.9965   95.7038   -1.2443 O.3     1  UNL1       -0.4684
     33 C          61.7134   95.2119   -2.6328 C.3     1  UNL1        0.2526
     34 N          63.7886   85.6063   13.2536 N.am    1  UNL1       -0.2778
     35 C          62.9762   84.5861   13.9947 C.2     1  UNL1        0.2843
     36 O          62.2495   84.9729   15.2486 O.2     1  UNL1       -0.2665
     37 H          64.2656   85.3524   12.4306 H       1  UNL1        0.1553
     38 C          62.8905   83.1791   13.4820 C.ar    1  UNL1        0.2017
     39 C          62.6730   82.0442   14.4384 C.ar    1  UNL1        0.0843
     40 C          62.5873   80.6372   13.9258 C.ar    1  UNL1        0.2018
     41 O          62.3698   79.5023   14.8823 O.2     1  UNL1       -0.2864
     42 C          62.7191   80.3650   12.4566 C.ar    1  UNL1        0.0735
     43 C          62.6333   78.9579   11.9439 C.ar    1  UNL1        0.0062
     44 C          62.7651   78.6857   10.4746 C.ar    1  UNL1        0.0003
     45 C          62.9826   79.8205    9.5182 C.ar    1  UNL1        0.0031
     46 C          63.0683   81.2276   10.0309 C.ar    1  UNL1        0.0376
     47 C          62.9365   81.4998   11.5001 C.ar    1  UNL1        0.1485
     48 O          63.0222   82.9068   12.0127 O.2     1  UNL1       -0.4487
     49 O          64.1312   91.2344   15.3047 O.3     1  UNL1       -0.4706
     50 C          65.4459   91.9567   15.2971 C.3     1  UNL1        0.2321
     51 C          66.2376   92.0598   14.0272 C.ar    1  UNL1        0.0242
     52 C          65.5799   92.5485   12.7709 C.ar    1  UNL1        0.0200
     53 C          66.3715   92.6517   11.5010 C.ar    1  UNL1        0.0987
     54 N          67.8211   92.2661   11.4875 N.ar    1  UNL1       -0.2423
     55 C          68.4789   91.7774   12.7439 C.ar    1  UNL1        0.0987
     56 C          67.6872   91.6743   14.0137 C.ar    1  UNL1        0.0200
@<TRIPOS>BOND
     1    30    31    1
     2    31    20    1
     3    20    21   ar
     4    21    22   ar
     5    22    23   ar
     6    23    24   ar
     7    24    25   ar
     8    25    32    1
     9    32    33    1
    10    23    26    1
    11    26    27    1
    12    27    19    1
    13    19    18    1
    14    18    12    1
    15    12    13   ar
    16    13    14   ar
    17    14    15   ar
    18    15     7    1
    19     7     8   ar
    20     8     9   ar
    21     9    10   ar
    22    10     1    1
    23     1     2   ar
    24     2     3   ar
    25     3    49    1
    26    49    50    1
    27    50    51    1
    28    51    52   ar
    29    52    53   ar
    30    53    54   ar
    31    54    55   ar
    32    55    56   ar
    33     3     4   ar
    34     4     5   ar
    35     5     6   ar
    36     6    34    1
    37    34    35   am
    38    35    36    2
    39    35    38    1
    40    38    39   ar
    41    39    40   ar
    42    40    41    2
    43    40    42   ar
    44    42    43   ar
    45    43    44   ar
    46    44    45   ar
    47    45    46   ar
    48    46    47   ar
    49    47    48   ar
    50    10    11   ar
    51    15    16   ar
    52    16    17   ar
    53    27    28    1
    54    28    29    1
    55    25    20   ar
    56    17    12   ar
    57    29    22    1
    58    11     7   ar
    59     6     1   ar
    60    48    38   ar
    61    56    51   ar
    62    47    42   ar
    63    34    37    1
@<TRIPOS>MOLECULE
*****
 56 63 0 0 0
SMALL
GASTEIGER

@<TRIPOS>ATOM
      1 C          63.0594   89.0243   12.2399 C.ar    1  UNL1        0.0558
      2 C          63.4274   90.4401   12.5713 C.ar    1  UNL1        0.0413
      3 C          64.2576   90.7348   13.7853 C.ar    1  UNL1        0.1392
      4 C          64.7200   89.6135   14.6679 C.ar    1  UNL1        0.0382
      5 C          64.3520   88.1977   14.3365 C.ar    1  UNL1        0.0179
      6 C          63.5218   87.9030   13.1225 C.ar    1  UNL1        0.0539
      7 N          60.9984   88.9956    8.9510 N.ar    1  UNL1       -0.1285
      8 N          60.9046   87.5567    9.3643 N.ar    1  UNL1       -0.0406
      9 N          61.6653   87.3923   10.6467 N.ar    1  UNL1       -0.1074
     10 C          62.2292   88.7296   11.0259 C.ar    1  UNL1        0.2075
     11 N          61.8170   89.7205    9.9778 N.ar    1  UNL1       -0.1253
     12 C          59.1487   90.8176    5.2755 C.ar    1  UNL1       -0.0207
     13 C          60.5934   91.0689    5.5913 C.ar    1  UNL1       -0.0026
     14 C          61.2100   90.4615    6.8165 C.ar    1  UNL1        0.0206
     15 C          60.3818   89.6029    7.7259 C.ar    1  UNL1        0.1045
     16 C          58.9371   89.3516    7.4101 C.ar    1  UNL1        0.0206
     17 C          58.3206   89.9590    6.1850 C.ar    1  UNL1       -0.0026
     18 C          58.5321   91.4249    4.0504 C.3     1  UNL1        0.0437
     19 C          59.0039   92.7605    3.5568 C.3     1  UNL1        0.0771
     20 C          63.4292   93.7486   -1.6094 C.ar    1  UNL1        0.1721
     21 C          62.0548   93.1481   -1.5951 C.ar    1  UNL1        0.0356
     22 C          61.2920   93.0512   -0.3071 C.ar    1  UNL1       -0.0202
     23 C          61.9037   93.5548    0.9665 C.ar    1  UNL1       -0.0068
     24 C          63.2783   94.1554    0.9521 C.ar    1  UNL1        0.0368
     25 C          64.0409   94.2523   -0.3358 C.ar    1  UNL1        0.1721
     26 C          61.1411   93.4580    2.2545 C.3     1  UNL1        0.0990
     27 N          59.7666   92.8574    2.2688 N.3     1  UNL1       -0.2683
     28 C          59.1549   92.3538    0.9952 C.3     1  UNL1        0.0771
     29 C          59.9176   92.4506   -0.2927 C.3     1  UNL1        0.0435
     30 C          63.8491   92.9387   -4.0421 C.3     1  UNL1        0.2526
     31 O          64.1920   93.8455   -2.8974 O.3     1  UNL1       -0.4684
     32 O          65.4154   94.8528   -0.3502 O.3     1  UNL1       -0.4684
     33 C          65.5884   96.3340   -0.1885 C.3     1  UNL1        0.2526
     34 N          63.1538   86.4871   12.7911 N.am    1  UNL1       -0.2778
     35 C          63.8013   85.3519   13.5275 C.2     1  UNL1        0.2843
     36 O          64.8166   85.6327   14.5954 O.2     1  UNL1       -0.2665
     37 H          62.4874   86.3028   12.0902 H       1  UNL1        0.1553
     38 C          63.4334   83.9360   13.1962 C.ar    1  UNL1        0.2017
     39 C          62.8040   83.0609   14.2393 C.ar    1  UNL1        0.0843
     40 C          62.4361   81.6451   13.9080 C.ar    1  UNL1        0.2018
     41 O          61.8067   80.7699   14.9512 O.2     1  UNL1       -0.2864
     42 C          62.6976   81.1042   12.5335 C.ar    1  UNL1        0.0735
     43 C          62.3296   79.6882   12.2022 C.ar    1  UNL1        0.0062
     44 C          62.5911   79.1474   10.8277 C.ar    1  UNL1        0.0003
     45 C          63.2204   80.0224    9.7846 C.ar    1  UNL1        0.0031
     46 C          63.5884   81.4384   10.1160 C.ar    1  UNL1        0.0376
     47 C          63.3269   81.9793   11.4904 C.ar    1  UNL1        0.1485
     48 O          63.6948   83.3952   11.8217 O.2     1  UNL1       -0.4487
     49 O          64.6255   92.1507   14.1166 O.3     1  UNL1       -0.4706
     50 C          66.0350   92.6250   13.9204 C.3     1  UNL1        0.2321
     51 C          66.5188   92.9918   12.5486 C.ar    1  UNL1        0.0242
     52 C          66.2001   94.3414   11.9771 C.ar    1  UNL1        0.0200
     53 C          66.6838   94.7082   10.6054 C.ar    1  UNL1        0.0987
     54 N          67.4862   93.7254    9.8054 N.ar    1  UNL1       -0.2423
     55 C          67.8049   92.3756   10.3770 C.ar    1  UNL1        0.0987
     56 C          67.3212   92.0089   11.7486 C.ar    1  UNL1        0.0200
@<TRIPOS>BOND
     1    30    31    1
     2    31    20    1
     3    20    21   ar
     4    21    22   ar
     5    22    23   ar
     6    23    24   ar
     7    24    25   ar
     8    25    32    1
     9    32    33    1
    10    23    26    1
    11    26    27    1
    12    27    19    1
    13    19    18    1
    14    18    12    1
    15    12    13   ar
    16    13    14   ar
    17    14    15   ar
    18    15     7    1
    19     7     8   ar
    20     8     9   ar
    21     9    10   ar
    22    10     1    1
    23     1     2   ar
    24     2     3   ar
    25     3    49    1
    26    49    50    1
    27    50    51    1
    28    51    52   ar
    29    52    53   ar
    30    53    54   ar
    31    54    55   ar
    32    55    56   ar
    33     3     4   ar
    34     4     5   ar
    35     5     6   ar
    36     6    34    1
    37    34    35   am
    38    35    36    2
    39    35    38    1
    40    38    39   ar
    41    39    40   ar
    42    40    41    2
    43    40    42   ar
    44    42    43   ar
    45    43    44   ar
    46    44    45   ar
    47    45    46   ar
    48    46    47   ar
    49    47    48   ar
    50    10    11   ar
    51    15    16   ar
    52    16    17   ar
    53    27    28    1
    54    28    29    1
    55    25    20   ar
    56    17    12   ar
    57    29    22    1
    58    11     7   ar
    59     6     1   ar
    60    48    38   ar
    61    56    51   ar
    62    47    42   ar
    63    34    37    1
