@<TRIPOS>MOLECULE
*****
 42 42 0 0 0
SMALL
GASTEIGER

@<TRIPOS>ATOM
      1 C          63.7262   90.2372   13.4255 C.3     1  UNL1        0.1951
      2 C          62.6325   89.4703   12.7431 C.2     1  UNL1        0.2503
      3 O          61.1968   89.8060   13.0184 O.2     1  UNL1       -0.2725
      4 N          62.9747   88.3677   11.7853 N.am    1  UNL1       -0.2948
      5 H          63.9170   88.1474   11.6046 H       1  UNL1        0.1499
      6 C          61.8810   87.6008   11.1029 C.3     1  UNL1        0.1732
      7 C          61.0000   88.2835   10.0990 C.2     1  UNL1        0.3349
      8 O          61.3492   89.6562    9.6055 O.2     1  UNL1       -0.2483
      9 O          59.7699   87.5934    9.5885 O.3     1  UNL1       -0.4512
     10 C          59.6197   87.3156    8.1222 C.3     1  UNL1        0.1691
     11 C          59.1459   88.3982    7.1984 C.3     1  UNL1        0.0473
     12 C          59.9432   85.9551    7.5796 C.3     1  UNL1        0.0473
     13 C          61.6682   86.1512   11.4245 C.3     1  UNL1        0.0564
     14 C          62.4632   85.0997   10.7088 C.3     1  UNL1        0.1532
     15 S          63.2070   84.0590   11.4922 S.O2    1  UNL1       -0.0082
     16 C          63.9509   83.0183   12.2756 C.3     1  UNL1        0.1760
     17 O          62.5829   84.5660   12.7584 O.2     1  UNL1       -0.1729
     18 O          63.8312   83.5520   10.2260 O.2     1  UNL1       -0.1729
     19 C          64.6506   89.5385   14.3779 C.3     1  UNL1        0.0653
     20 C          64.1338   88.4317   15.2486 C.ar    1  UNL1       -0.0192
     21 C          64.4341   87.0033   14.9032 C.ar    1  UNL1       -0.0042
     22 C          63.9174   85.8966   15.7739 C.ar    1  UNL1       -0.0003
     23 C          63.1003   86.2183   16.9900 C.ar    1  UNL1       -0.0000
     24 C          62.8000   87.6467   17.3354 C.ar    1  UNL1       -0.0003
     25 C          63.3168   88.7534   16.4647 C.ar    1  UNL1       -0.0042
     26 O          63.8956   91.7030   13.1553 O.3     1  UNL1       -0.3453
     27 C          64.8899   92.1672   12.1328 C.3     1  UNL1        0.1583
     28 C          66.0945   92.9524   12.5603 C.3     1  UNL1        0.0840
     29 C          66.9708   92.4396   13.6644 C.3     1  UNL1        0.0169
     30 C          68.2447   91.7186   13.3373 C.3     1  UNL1        0.0015
     31 C          67.5985   93.0721   16.1049 C.3     1  UNL1        0.0000
     32 C          66.5731   92.6479   15.0957 C.3     1  UNL1        0.0014
     33 N          66.4226   94.2502   11.8836 N.3     1  UNL1       -0.2954
     34 H          67.4137   94.4261   12.0489 H       1  UNL1        0.1233
     35 C          66.1953   94.4058   10.4092 C.3     1  UNL1        0.0851
     36 C          67.3437   94.7417    9.5046 C.3     1  UNL1        0.0774
     37 N          67.7060   96.1754    9.2532 N.3     1  UNL1       -0.3204
     38 H          68.5041   96.2183    8.6195 H       1  UNL1        0.1189
     39 H          67.9483   96.6247   10.1362 H       1  UNL1        0.1189
     40 C          68.1298   93.6439    8.8513 C.3     1  UNL1        0.0703
     41 S          68.3436   92.3446    9.5699 S.3     1  UNL1       -0.1665
     42 H          69.1172   92.5560   10.6683 H       1  UNL1        0.1023
@<TRIPOS>BOND
     1    31    32    1
     2    32    29    1
     3    29    30    1
     4    29    28    1
     5    28    27    1
     6    27    26    1
     7    26     1    1
     8     1    19    1
     9    19    20    1
    10    20    21   ar
    11    21    22   ar
    12    22    23   ar
    13    23    24   ar
    14    24    25   ar
    15     1     2    1
    16     2     3    2
    17     2     4   am
    18     4     6    1
    19     6    13    1
    20    13    14    1
    21    14    15    1
    22    15    16    1
    23    15    17    2
    24    15    18    2
    25     6     7    1
    26     7     8    2
    27     7     9    1
    28     9    10    1
    29    10    11    1
    30    10    12    1
    31    28    33    1
    32    33    35    1
    33    35    36    1
    34    36    37    1
    35    36    40    1
    36    40    41    1
    37    25    20   ar
    38     4     5    1
    39    33    34    1
    40    37    38    1
    41    37    39    1
    42    41    42    1
@<TRIPOS>MOLECULE
*****
 42 42 0 0 0
SMALL
GASTEIGER

@<TRIPOS>ATOM
      1 C          63.8013   90.3350   13.2980 C.3     1  UNL1        0.1951
      2 C          62.7161   89.5161   12.6643 C.2     1  UNL1        0.2503
      3 O          61.2792   89.7892   12.9969 O.2     1  UNL1       -0.2725
      4 N          63.0677   88.4240   11.6979 N.am    1  UNL1       -0.2948
      5 H          64.0109   88.2448   11.4796 H       1  UNL1        0.1499
      6 C          61.9825   87.6051   11.0642 C.3     1  UNL1        0.1732
      7 C          61.0636   88.2293   10.0561 C.2     1  UNL1        0.3349
      8 O          61.3562   89.6001    9.5220 O.2     1  UNL1       -0.2483
      9 O          59.8521   87.4826    9.5821 O.3     1  UNL1       -0.4512
     10 C          59.6476   87.2380    8.1164 C.3     1  UNL1        0.1691
     11 C          59.0510   88.3099    7.2532 C.3     1  UNL1        0.0473
     12 C          60.0398   85.9215    7.5139 C.3     1  UNL1        0.0473
     13 C          61.8161   86.1622   11.4385 C.3     1  UNL1        0.0564
     14 C          62.4370   85.0912   10.5915 C.3     1  UNL1        0.1532
     15 S          63.2851   84.0297   11.2272 S.O2    1  UNL1       -0.0082
     16 C          64.1332   82.9683   11.8629 C.3     1  UNL1        0.1760
     17 O          62.7180   84.3811   12.5707 O.2     1  UNL1       -0.1729
     18 O          63.8523   83.6783    9.8838 O.2     1  UNL1       -0.1729
     19 C          64.6713   89.7329   14.3613 C.3     1  UNL1        0.0653
     20 C          64.1641   88.5868   15.1854 C.ar    1  UNL1       -0.0192
     21 C          63.3585   88.8513   16.4226 C.ar    1  UNL1       -0.0042
     22 C          62.8513   87.7052   17.2467 C.ar    1  UNL1       -0.0003
     23 C          63.1497   86.2945   16.8335 C.ar    1  UNL1       -0.0000
     24 C          63.9553   86.0299   15.5962 C.ar    1  UNL1       -0.0003
     25 C          64.4625   87.1761   14.7722 C.ar    1  UNL1       -0.0042
     26 O          64.0166   91.7559   12.8683 O.3     1  UNL1       -0.3453
     27 C          64.8165   92.0535   11.6348 C.3     1  UNL1        0.1583
     28 C          66.0602   92.8868   11.7303 C.3     1  UNL1        0.0840
     29 C          66.4338   93.8079   10.6070 C.3     1  UNL1        0.0169
     30 C          65.8494   95.1879   10.5428 C.3     1  UNL1        0.0015
     31 C          68.1733   92.0835    9.7408 C.3     1  UNL1        0.0000
     32 C          67.3919   93.3491    9.5479 C.3     1  UNL1        0.0014
     33 N          66.9302   92.7989   12.9490 N.3     1  UNL1       -0.2954
     34 H          67.8681   93.0788   12.6621 H       1  UNL1        0.1233
     35 C          66.5933   93.6017   14.1704 C.3     1  UNL1        0.0851
     36 C          66.5255   92.9339   15.5118 C.3     1  UNL1        0.0774
     37 N          65.1993   92.7314   16.1827 N.3     1  UNL1       -0.3204
     38 H          65.3394   92.2660   17.0794 H       1  UNL1        0.1189
     39 H          64.6029   92.1543   15.5896 H       1  UNL1        0.1189
     40 C          67.7840   92.4685   16.1824 C.3     1  UNL1        0.0703
     41 S          69.1007   93.0888   15.8196 S.3     1  UNL1       -0.1665
     42 H          69.4047   92.7851   14.5293 H       1  UNL1        0.1023
@<TRIPOS>BOND
     1    31    32    1
     2    32    29    1
     3    29    30    1
     4    29    28    1
     5    28    27    1
     6    27    26    1
     7    26     1    1
     8     1    19    1
     9    19    20    1
    10    20    21   ar
    11    21    22   ar
    12    22    23   ar
    13    23    24   ar
    14    24    25   ar
    15     1     2    1
    16     2     3    2
    17     2     4   am
    18     4     6    1
    19     6    13    1
    20    13    14    1
    21    14    15    1
    22    15    16    1
    23    15    17    2
    24    15    18    2
    25     6     7    1
    26     7     8    2
    27     7     9    1
    28     9    10    1
    29    10    11    1
    30    10    12    1
    31    28    33    1
    32    33    35    1
    33    35    36    1
    34    36    37    1
    35    36    40    1
    36    40    41    1
    37    25    20   ar
    38     4     5    1
    39    33    34    1
    40    37    38    1
    41    37    39    1
    42    41    42    1
@<TRIPOS>MOLECULE
*****
 42 42 0 0 0
SMALL
GASTEIGER

@<TRIPOS>ATOM
      1 C          62.3612   87.4685   11.6393 C.3     1  UNL1        0.1951
      2 C          62.8219   88.8719   11.9006 C.2     1  UNL1        0.2503
      3 O          62.2648   90.0067   11.0934 O.2     1  UNL1       -0.2725
      4 N          63.8399   89.1404   12.9692 N.am    1  UNL1       -0.2948
      5 H          64.2055   88.3955   13.4990 H       1  UNL1        0.1499
      6 C          64.3006   90.5437   13.2305 C.3     1  UNL1        0.1732
      7 C          64.6718   90.9645   14.6217 C.2     1  UNL1        0.3349
      8 O          63.6503   91.6163   15.5058 O.2     1  UNL1       -0.2483
      9 O          66.0644   90.7334   15.1287 O.3     1  UNL1       -0.4512
     10 C          67.0671   91.8487   15.1019 C.3     1  UNL1        0.1691
     11 C          67.0225   92.9225   16.1483 C.3     1  UNL1        0.0473
     12 C          68.1142   91.8902   14.0288 C.3     1  UNL1        0.0473
     13 C          64.3902   91.5263   12.1008 C.3     1  UNL1        0.0564
     14 C          65.2875   92.7227   12.2167 C.3     1  UNL1        0.1532
     15 S          65.9536   93.2819   10.9944 S.O2    1  UNL1       -0.0082
     16 C          66.6195   93.8410    9.7722 C.3     1  UNL1        0.1760
     17 O          66.6478   94.3068   11.8416 O.2     1  UNL1       -0.1729
     18 O          65.2594   92.2570   10.1473 O.2     1  UNL1       -0.1729
     19 C          61.1847   87.2201   10.7426 C.3     1  UNL1        0.0653
     20 C          61.3678   86.4736    9.4545 C.ar    1  UNL1       -0.0192
     21 C          62.7055   85.8888    9.1102 C.ar    1  UNL1       -0.0042
     22 C          62.8886   85.1424    7.8221 C.ar    1  UNL1       -0.0003
     23 C          61.7340   84.9806    6.8783 C.ar    1  UNL1       -0.0000
     24 C          60.3963   85.5654    7.2226 C.ar    1  UNL1       -0.0003
     25 C          60.2132   86.3119    8.5108 C.ar    1  UNL1       -0.0042
     26 O          63.0771   86.3135   12.2747 O.3     1  UNL1       -0.3453
     27 C          62.4001   84.9795   12.3830 C.3     1  UNL1        0.1583
     28 C          63.1766   83.7789   12.8367 C.3     1  UNL1        0.0840
     29 C          62.7872   82.4104   12.3617 C.3     1  UNL1        0.0169
     30 C          61.9684   81.5153   13.2438 C.3     1  UNL1        0.0015
     31 C          64.3035   82.6613   10.2671 C.3     1  UNL1        0.0000
     32 C          63.2166   81.9371   11.0047 C.3     1  UNL1        0.0014
     33 N          64.3426   83.9469   13.7653 N.3     1  UNL1       -0.2954
     34 H          64.8789   84.7443   13.4232 H       1  UNL1        0.1233
     35 C          64.1086   84.1782   15.2287 C.3     1  UNL1        0.0851
     36 C          63.6128   85.5104   15.7077 C.3     1  UNL1        0.0774
     37 N          64.1186   86.7715   15.0723 N.3     1  UNL1       -0.3204
     38 H          63.6789   87.5768   15.5180 H       1  UNL1        0.1189
     39 H          63.8904   86.7666   14.0782 H       1  UNL1        0.1189
     40 C          62.6111   85.5815   16.8219 C.3     1  UNL1        0.0703
     41 S          62.6880   86.6897   17.8299 S.3     1  UNL1       -0.1665
     42 H          63.8296   86.5620   18.5579 H       1  UNL1        0.1023
@<TRIPOS>BOND
     1    31    32    1
     2    32    29    1
     3    29    30    1
     4    29    28    1
     5    28    27    1
     6    27    26    1
     7    26     1    1
     8     1    19    1
     9    19    20    1
    10    20    21   ar
    11    21    22   ar
    12    22    23   ar
    13    23    24   ar
    14    24    25   ar
    15     1     2    1
    16     2     3    2
    17     2     4   am
    18     4     6    1
    19     6    13    1
    20    13    14    1
    21    14    15    1
    22    15    16    1
    23    15    17    2
    24    15    18    2
    25     6     7    1
    26     7     8    2
    27     7     9    1
    28     9    10    1
    29    10    11    1
    30    10    12    1
    31    28    33    1
    32    33    35    1
    33    35    36    1
    34    36    37    1
    35    36    40    1
    36    40    41    1
    37    25    20   ar
    38     4     5    1
    39    33    34    1
    40    37    38    1
    41    37    39    1
    42    41    42    1
@<TRIPOS>MOLECULE
*****
 42 42 0 0 0
SMALL
GASTEIGER

@<TRIPOS>ATOM
      1 C          62.4586   87.1688   11.6030 C.3     1  UNL1        0.1951
      2 C          62.6155   85.7762   12.1379 C.2     1  UNL1        0.2503
      3 O          61.7137   84.6803   11.6525 O.2     1  UNL1       -0.2725
      4 N          63.6744   85.4796   13.1581 N.am    1  UNL1       -0.2948
      5 H          64.2663   86.1989   13.4767 H       1  UNL1        0.1499
      6 C          63.8314   84.0870   13.6930 C.3     1  UNL1        0.1732
      7 C          64.2652   82.9778   12.7810 C.2     1  UNL1        0.3349
      8 O          64.8754   83.2976   11.4486 O.2     1  UNL1       -0.2483
      9 O          64.0888   81.5488   13.2016 O.3     1  UNL1       -0.4512
     10 C          62.8337   80.8105   12.8415 C.3     1  UNL1        0.1691
     11 C          62.7163   80.1375   11.5061 C.3     1  UNL1        0.0473
     12 C          61.6961   80.7451   13.8169 C.3     1  UNL1        0.0473
     13 C          63.5546   83.8035   15.1397 C.3     1  UNL1        0.0564
     14 C          62.3996   84.4697   15.8268 C.3     1  UNL1        0.1532
     15 S          62.6235   85.7137   16.6345 S.O2    1  UNL1       -0.0082
     16 C          62.8474   86.9577   17.4421 C.3     1  UNL1        0.1760
     17 O          64.1031   85.5837   16.4246 O.2     1  UNL1       -0.1729
     18 O          61.1440   85.8438   16.8444 O.2     1  UNL1       -0.1729
     19 C          61.5496   87.4267   10.4381 C.3     1  UNL1        0.0653
     20 C          61.6077   86.5389    9.2305 C.ar    1  UNL1       -0.0192
     21 C          62.9120   85.9290    8.8100 C.ar    1  UNL1       -0.0042
     22 C          62.9701   85.0411    7.6024 C.ar    1  UNL1       -0.0003
     23 C          61.7238   84.7631    6.8153 C.ar    1  UNL1       -0.0000
     24 C          60.4196   85.3729    7.2358 C.ar    1  UNL1       -0.0003
     25 C          60.3615   86.2608    8.4434 C.ar    1  UNL1       -0.0042
     26 O          63.2106   88.3034   12.2332 O.3     1  UNL1       -0.3453
     27 C          62.5320   89.6231   12.4521 C.3     1  UNL1        0.1583
     28 C          63.3503   90.8538   12.7089 C.3     1  UNL1        0.0840
     29 C          64.0212   91.5599   11.5682 C.3     1  UNL1        0.0169
     30 C          63.4748   91.4259   10.1778 C.3     1  UNL1        0.0015
     31 C          66.1083   92.8199   10.6703 C.3     1  UNL1        0.0000
     32 C          65.2385   92.4000   11.8180 C.3     1  UNL1        0.0014
     33 N          63.4977   91.3783   14.1065 N.3     1  UNL1       -0.2954
     34 H          62.6707   91.0778   14.6225 H       1  UNL1        0.1233
     35 C          64.6882   90.9893   14.9319 C.3     1  UNL1        0.0851
     36 C          65.3490   92.0023   15.8191 C.3     1  UNL1        0.0774
     37 N          64.5541   92.6999   16.8828 N.3     1  UNL1       -0.3204
     38 H          65.1573   93.3497   17.3870 H       1  UNL1        0.1189
     39 H          64.1782   92.0102   17.5336 H       1  UNL1        0.1189
     40 C          66.8048   92.3178   15.6427 C.3     1  UNL1        0.0703
     41 S          67.2236   93.4620   14.7678 S.3     1  UNL1       -0.1665
     42 H          66.8914   93.1909   13.4771 H       1  UNL1        0.1023
@<TRIPOS>BOND
     1    31    32    1
     2    32    29    1
     3    29    30    1
     4    29    28    1
     5    28    27    1
     6    27    26    1
     7    26     1    1
     8     1    19    1
     9    19    20    1
    10    20    21   ar
    11    21    22   ar
    12    22    23   ar
    13    23    24   ar
    14    24    25   ar
    15     1     2    1
    16     2     3    2
    17     2     4   am
    18     4     6    1
    19     6    13    1
    20    13    14    1
    21    14    15    1
    22    15    16    1
    23    15    17    2
    24    15    18    2
    25     6     7    1
    26     7     8    2
    27     7     9    1
    28     9    10    1
    29    10    11    1
    30    10    12    1
    31    28    33    1
    32    33    35    1
    33    35    36    1
    34    36    37    1
    35    36    40    1
    36    40    41    1
    37    25    20   ar
    38     4     5    1
    39    33    34    1
    40    37    38    1
    41    37    39    1
    42    41    42    1
@<TRIPOS>MOLECULE
*****
 42 42 0 0 0
SMALL
GASTEIGER

@<TRIPOS>ATOM
      1 C          63.7118   89.4479   13.2254 C.3     1  UNL1        0.1951
      2 C          64.0647   90.7908   12.6580 C.2     1  UNL1        0.2503
      3 O          63.0764   91.5270   11.8029 O.2     1  UNL1       -0.2725
      4 N          65.4061   91.3975   12.9456 N.am    1  UNL1       -0.2948
      5 H          66.0548   90.9144   13.5068 H       1  UNL1        0.1499
      6 C          65.7591   92.7405   12.3781 C.3     1  UNL1        0.1732
      7 C          66.1311   93.8679   13.2950 C.2     1  UNL1        0.3349
      8 O          66.3441   95.2456   12.7415 O.2     1  UNL1       -0.2483
      9 O          66.2901   93.6174   14.7654 O.3     1  UNL1       -0.4512
     10 C          67.5927   93.1022   15.3019 C.3     1  UNL1        0.1691
     11 C          68.6361   94.0636   15.7887 C.3     1  UNL1        0.0473
     12 C          67.8518   91.6257   15.3515 C.3     1  UNL1        0.0473
     13 C          65.7400   92.9560   10.8938 C.3     1  UNL1        0.0564
     14 C          67.0293   93.0799   10.1373 C.3     1  UNL1        0.1532
     15 S          67.3817   94.3724    9.4625 S.O2    1  UNL1       -0.0082
     16 C          67.7341   95.6649    8.7877 C.3     1  UNL1        0.1760
     17 O          68.8208   93.9526    9.4099 O.2     1  UNL1       -0.1729
     18 O          65.9426   94.7922    9.5151 O.2     1  UNL1       -0.1729
     19 C          64.5959   88.8143   14.2583 C.3     1  UNL1        0.0653
     20 C          64.0046   87.9100   15.2988 C.ar    1  UNL1       -0.0192
     21 C          64.1634   86.4233   15.1782 C.ar    1  UNL1       -0.0042
     22 C          63.5721   85.5190   16.2187 C.ar    1  UNL1       -0.0003
     23 C          62.8220   86.1014   17.3798 C.ar    1  UNL1       -0.0000
     24 C          62.6633   87.5880   17.5004 C.ar    1  UNL1       -0.0003
     25 C          63.2545   88.4923   16.4600 C.ar    1  UNL1       -0.0042
     26 O          62.4747   88.7386   12.7599 O.3     1  UNL1       -0.3453
     27 C          62.3684   88.2706   11.3388 C.3     1  UNL1        0.1583
     28 C          62.3451   86.8024   11.0323 C.3     1  UNL1        0.0840
     29 C          61.9044   86.3253    9.6803 C.3     1  UNL1        0.0169
     30 C          62.9095   85.7644    8.7185 C.3     1  UNL1        0.0015
     31 C          60.0154   87.4095    8.2638 C.3     1  UNL1        0.0000
     32 C          60.4585   86.4092    9.2899 C.3     1  UNL1        0.0014
     33 N          62.7625   85.8113   12.0780 N.3     1  UNL1       -0.2954
     34 H          62.2197   86.0209   12.9158 H       1  UNL1        0.1233
     35 C          62.6116   84.3413   11.8208 C.3     1  UNL1        0.0851
     36 C          63.6909   83.3906   12.2469 C.3     1  UNL1        0.0774
     37 N          64.8202   83.0707   11.3129 N.3     1  UNL1       -0.3204
     38 H          65.4571   82.4129   11.7624 H       1  UNL1        0.1189
     39 H          65.3234   83.9273   11.0820 H       1  UNL1        0.1189
     40 C          63.6408   82.7599   13.6069 C.3     1  UNL1        0.0703
     41 S          62.3830   82.0923   14.0782 S.3     1  UNL1       -0.1665
     42 H          61.4024   83.0235   14.2230 H       1  UNL1        0.1023
@<TRIPOS>BOND
     1    31    32    1
     2    32    29    1
     3    29    30    1
     4    29    28    1
     5    28    27    1
     6    27    26    1
     7    26     1    1
     8     1    19    1
     9    19    20    1
    10    20    21   ar
    11    21    22   ar
    12    22    23   ar
    13    23    24   ar
    14    24    25   ar
    15     1     2    1
    16     2     3    2
    17     2     4   am
    18     4     6    1
    19     6    13    1
    20    13    14    1
    21    14    15    1
    22    15    16    1
    23    15    17    2
    24    15    18    2
    25     6     7    1
    26     7     8    2
    27     7     9    1
    28     9    10    1
    29    10    11    1
    30    10    12    1
    31    28    33    1
    32    33    35    1
    33    35    36    1
    34    36    37    1
    35    36    40    1
    36    40    41    1
    37    25    20   ar
    38     4     5    1
    39    33    34    1
    40    37    38    1
    41    37    39    1
    42    41    42    1
@<TRIPOS>MOLECULE
*****
 42 42 0 0 0
SMALL
GASTEIGER

@<TRIPOS>ATOM
      1 C          62.7600   89.6128   11.7865 C.3     1  UNL1        0.1951
      2 C          63.5663   90.6497   12.5110 C.2     1  UNL1        0.2503
      3 O          63.2297   91.0058   13.9286 O.2     1  UNL1       -0.2725
      4 N          64.7092   91.3304   11.8177 N.am    1  UNL1       -0.2948
      5 H          64.9301   91.0967   10.8872 H       1  UNL1        0.1499
      6 C          65.5154   92.3673   12.5422 C.3     1  UNL1        0.1732
      7 C          65.8691   93.6549   11.8587 C.2     1  UNL1        0.3349
      8 O          66.1410   94.8856   12.6719 O.2     1  UNL1       -0.2483
      9 O          65.9507   93.7117   10.3620 O.3     1  UNL1       -0.4512
     10 C          67.2793   93.5821    9.6779 C.3     1  UNL1        0.1691
     11 C          67.8968   94.7731    9.0069 C.3     1  UNL1        0.0473
     12 C          67.9905   92.2615    9.6648 C.3     1  UNL1        0.0473
     13 C          65.9681   92.1166   13.9501 C.3     1  UNL1        0.0564
     14 C          67.4222   91.8923   14.2417 C.3     1  UNL1        0.1532
     15 S          68.1624   92.8407   15.1377 S.O2    1  UNL1       -0.0082
     16 C          68.9026   93.7890   16.0337 C.3     1  UNL1        0.1760
     17 O          66.9279   93.0167   15.9714 O.2     1  UNL1       -0.1729
     18 O          69.3969   92.6647   14.3041 O.2     1  UNL1       -0.1729
     19 C          62.2036   89.9112   10.4259 C.3     1  UNL1        0.0653
     20 C          61.5398   88.8251    9.6323 C.ar    1  UNL1       -0.0192
     21 C          62.1671   87.4649    9.5517 C.ar    1  UNL1       -0.0042
     22 C          61.5033   86.3788    8.7581 C.ar    1  UNL1       -0.0003
     23 C          60.2124   86.6528    8.0451 C.ar    1  UNL1       -0.0000
     24 C          59.5852   88.0130    8.1258 C.ar    1  UNL1       -0.0003
     25 C          60.2489   89.0991    8.9194 C.ar    1  UNL1       -0.0042
     26 O          62.5102   88.2775   12.4227 O.3     1  UNL1       -0.3453
     27 C          63.6330   87.5461   13.0966 C.3     1  UNL1        0.1583
     28 C          63.4454   86.1238   13.5349 C.3     1  UNL1        0.0840
     29 C          64.2115   85.5940   14.7106 C.3     1  UNL1        0.0169
     30 C          65.2941   84.5766   14.5035 C.3     1  UNL1        0.0015
     31 C          62.6266   85.6513   16.7684 C.3     1  UNL1        0.0000
     32 C          63.8951   86.0816   16.0934 C.3     1  UNL1        0.0014
     33 N          62.4915   85.2314   12.7975 N.3     1  UNL1       -0.2954
     34 H          61.7121   85.8172   12.4979 H       1  UNL1        0.1233
     35 C          62.9548   84.4752   11.5878 C.3     1  UNL1        0.0851
     36 C          63.5045   83.0874   11.7359 C.3     1  UNL1        0.0774
     37 N          64.9315   82.8031   11.3717 N.3     1  UNL1       -0.3204
     38 H          65.1337   81.8165   11.5336 H       1  UNL1        0.1189
     39 H          65.5497   83.3756   11.9465 H       1  UNL1        0.1189
     40 C          62.6271   81.9839   12.2483 C.3     1  UNL1        0.0703
     41 S          62.5927   81.6729   13.7153 S.3     1  UNL1       -0.1665
     42 H          63.8060   81.1994   14.1069 H       1  UNL1        0.1023
@<TRIPOS>BOND
     1    31    32    1
     2    32    29    1
     3    29    30    1
     4    29    28    1
     5    28    27    1
     6    27    26    1
     7    26     1    1
     8     1    19    1
     9    19    20    1
    10    20    21   ar
    11    21    22   ar
    12    22    23   ar
    13    23    24   ar
    14    24    25   ar
    15     1     2    1
    16     2     3    2
    17     2     4   am
    18     4     6    1
    19     6    13    1
    20    13    14    1
    21    14    15    1
    22    15    16    1
    23    15    17    2
    24    15    18    2
    25     6     7    1
    26     7     8    2
    27     7     9    1
    28     9    10    1
    29    10    11    1
    30    10    12    1
    31    28    33    1
    32    33    35    1
    33    35    36    1
    34    36    37    1
    35    36    40    1
    36    40    41    1
    37    25    20   ar
    38     4     5    1
    39    33    34    1
    40    37    38    1
    41    37    39    1
    42    41    42    1
@<TRIPOS>MOLECULE
*****
 42 42 0 0 0
SMALL
GASTEIGER

@<TRIPOS>ATOM
      1 C          62.5486   88.2660   11.4624 C.3     1  UNL1        0.1951
      2 C          63.1505   87.4182   12.5436 C.2     1  UNL1        0.2503
      3 O          64.0429   88.0412   13.5758 O.2     1  UNL1       -0.2725
      4 N          62.8599   85.9474   12.5927 N.am    1  UNL1       -0.2948
      5 H          62.2741   85.5385   11.9152 H       1  UNL1        0.1499
      6 C          63.4617   85.0997   13.6739 C.3     1  UNL1        0.1732
      7 C          62.9973   85.2517   15.0922 C.2     1  UNL1        0.3349
      8 O          61.6879   84.6583   15.5203 O.2     1  UNL1       -0.2483
      9 O          63.8423   85.9973   16.0822 O.3     1  UNL1       -0.4512
     10 C          63.2038   86.9619   17.0370 C.3     1  UNL1        0.1691
     11 C          63.1319   88.4204   16.6938 C.3     1  UNL1        0.0473
     12 C          62.6372   86.4681   18.3351 C.3     1  UNL1        0.0473
     13 C          64.5279   84.0999   13.3370 C.3     1  UNL1        0.0564
     14 C          64.1498   82.7573   12.7852 C.3     1  UNL1        0.1532
     15 S          62.9771   82.0155   13.3549 S.O2    1  UNL1       -0.0082
     16 C          61.8045   81.2736   13.9246 C.3     1  UNL1        0.1760
     17 O          63.7005   81.8752   14.6614 O.2     1  UNL1       -0.1729
     18 O          62.2537   82.1557   12.0484 O.2     1  UNL1       -0.1729
     19 C          62.2165   89.7033   11.7338 C.3     1  UNL1        0.0653
     20 C          63.3034   90.7370   11.7348 C.ar    1  UNL1       -0.0192
     21 C          63.6813   91.4292   10.4588 C.ar    1  UNL1       -0.0042
     22 C          64.7683   92.4629   10.4598 C.ar    1  UNL1       -0.0003
     23 C          65.4773   92.8044   11.7367 C.ar    1  UNL1       -0.0000
     24 C          65.0994   92.1123   13.0127 C.ar    1  UNL1       -0.0003
     25 C          64.0125   91.0786   13.0117 C.ar    1  UNL1       -0.0042
     26 O          62.2790   87.6763   10.1097 O.3     1  UNL1       -0.3453
     27 C          61.1535   86.7017    9.9272 C.3     1  UNL1        0.1583
     28 C          60.8802   86.1164    8.5734 C.3     1  UNL1        0.0840
     29 C          61.9530   85.3514    7.8566 C.3     1  UNL1        0.0169
     30 C          61.6822   84.7727    6.4995 C.3     1  UNL1        0.0015
     31 C          63.5582   83.9628    9.3550 C.3     1  UNL1        0.0000
     32 C          63.2966   85.1650    8.4969 C.3     1  UNL1        0.0014
     33 N          59.5342   86.2962    7.9364 N.3     1  UNL1       -0.2954
     34 H          58.9112   85.6127    8.3666 H       1  UNL1        0.1233
     35 C          58.8396   87.6235    8.0127 C.3     1  UNL1        0.0851
     36 C          59.5499   88.8683    7.5700 C.3     1  UNL1        0.0774
     37 N          60.3173   89.6879    8.5647 N.3     1  UNL1       -0.3204
     38 H          60.7330   90.4918    8.0942 H       1  UNL1        0.1189
     39 H          61.0546   89.1174    8.9786 H       1  UNL1        0.1189
     40 C          59.4928   89.2935    6.1327 C.3     1  UNL1        0.0703
     41 S          58.8543   90.5991    5.7616 S.3     1  UNL1       -0.1665
     42 H          57.5234   90.5472    6.0366 H       1  UNL1        0.1023
@<TRIPOS>BOND
     1    31    32    1
     2    32    29    1
     3    29    30    1
     4    29    28    1
     5    28    27    1
     6    27    26    1
     7    26     1    1
     8     1    19    1
     9    19    20    1
    10    20    21   ar
    11    21    22   ar
    12    22    23   ar
    13    23    24   ar
    14    24    25   ar
    15     1     2    1
    16     2     3    2
    17     2     4   am
    18     4     6    1
    19     6    13    1
    20    13    14    1
    21    14    15    1
    22    15    16    1
    23    15    17    2
    24    15    18    2
    25     6     7    1
    26     7     8    2
    27     7     9    1
    28     9    10    1
    29    10    11    1
    30    10    12    1
    31    28    33    1
    32    33    35    1
    33    35    36    1
    34    36    37    1
    35    36    40    1
    36    40    41    1
    37    25    20   ar
    38     4     5    1
    39    33    34    1
    40    37    38    1
    41    37    39    1
    42    41    42    1
@<TRIPOS>MOLECULE
*****
 42 42 0 0 0
SMALL
GASTEIGER

@<TRIPOS>ATOM
      1 C          62.7856   88.3590   11.7040 C.3     1  UNL1        0.1951
      2 C          62.4536   86.9811   12.1950 C.2     1  UNL1        0.2503
      3 O          61.1220   86.3705   11.8724 O.2     1  UNL1       -0.2725
      4 N          63.4531   86.2137   13.0088 N.am    1  UNL1       -0.2948
      5 H          64.3271   86.6145   13.2205 H       1  UNL1        0.1499
      6 C          63.1211   84.8358   13.4998 C.3     1  UNL1        0.1732
      7 C          63.3870   83.6445   12.6279 C.2     1  UNL1        0.3349
      8 O          63.4162   83.7985   11.1361 O.2     1  UNL1       -0.2483
      9 O          63.6238   82.2993   13.2478 O.3     1  UNL1       -0.4512
     10 C          62.5924   81.2188   13.1118 C.3     1  UNL1        0.1691
     11 C          62.7018   80.2125   12.0048 C.3     1  UNL1        0.0473
     12 C          61.4515   81.1446   14.0828 C.3     1  UNL1        0.0473
     13 C          62.5231   84.6492   14.8627 C.3     1  UNL1        0.0564
     14 C          63.2937   85.0594   16.0825 C.3     1  UNL1        0.1532
     15 S          63.0627   86.4081   16.6971 S.O2    1  UNL1       -0.0082
     16 C          62.8317   87.7567   17.3118 C.3     1  UNL1        0.1760
     17 O          63.9425   87.0335   15.6556 O.2     1  UNL1       -0.1729
     18 O          62.1829   85.7827   17.7386 O.2     1  UNL1       -0.1729
     19 C          62.4750   88.7458   10.2884 C.3     1  UNL1        0.0653
     20 C          61.6642   87.8291    9.4211 C.ar    1  UNL1       -0.0192
     21 C          60.2233   88.1395    9.1430 C.ar    1  UNL1       -0.0042
     22 C          59.4125   87.2228    8.2756 C.ar    1  UNL1       -0.0003
     23 C          60.0427   85.9958    7.6863 C.ar    1  UNL1       -0.0000
     24 C          61.4836   85.6854    7.9644 C.ar    1  UNL1       -0.0003
     25 C          62.2944   86.6021    8.8318 C.ar    1  UNL1       -0.0042
     26 O          63.4283   89.3501   12.6286 O.3     1  UNL1       -0.3453
     27 C          63.6803   90.7542   12.1651 C.3     1  UNL1        0.1583
     28 C          64.6276   91.6358   12.9237 C.3     1  UNL1        0.0840
     29 C          65.0497   91.2623   14.3138 C.3     1  UNL1        0.0169
     30 C          64.0379   90.7391   15.2897 C.3     1  UNL1        0.0015
     31 C          66.8870   92.5287   15.6443 C.3     1  UNL1        0.0000
     32 C          66.4836   91.4119   14.7279 C.3     1  UNL1        0.0014
     33 N          65.1527   92.8910   12.2923 N.3     1  UNL1       -0.2954
     34 H          65.8641   93.2621   12.9220 H       1  UNL1        0.1233
     35 C          65.7677   92.8421   10.9250 C.3     1  UNL1        0.0851
     36 C          66.1509   94.1145   10.2291 C.3     1  UNL1        0.0774
     37 N          65.2661   95.3213   10.3319 N.3     1  UNL1       -0.3204
     38 H          65.6767   96.0900    9.8019 H       1  UNL1        0.1189
     39 H          65.1749   95.5937   11.3106 H       1  UNL1        0.1189
     40 C          67.4188   94.1799    9.4303 C.3     1  UNL1        0.0703
     41 S          68.2797   92.9598    9.2884 S.3     1  UNL1       -0.1665
     42 H          68.7925   92.6232   10.5021 H       1  UNL1        0.1023
@<TRIPOS>BOND
     1    31    32    1
     2    32    29    1
     3    29    30    1
     4    29    28    1
     5    28    27    1
     6    27    26    1
     7    26     1    1
     8     1    19    1
     9    19    20    1
    10    20    21   ar
    11    21    22   ar
    12    22    23   ar
    13    23    24   ar
    14    24    25   ar
    15     1     2    1
    16     2     3    2
    17     2     4   am
    18     4     6    1
    19     6    13    1
    20    13    14    1
    21    14    15    1
    22    15    16    1
    23    15    17    2
    24    15    18    2
    25     6     7    1
    26     7     8    2
    27     7     9    1
    28     9    10    1
    29    10    11    1
    30    10    12    1
    31    28    33    1
    32    33    35    1
    33    35    36    1
    34    36    37    1
    35    36    40    1
    36    40    41    1
    37    25    20   ar
    38     4     5    1
    39    33    34    1
    40    37    38    1
    41    37    39    1
    42    41    42    1
@<TRIPOS>MOLECULE
*****
 42 42 0 0 0
SMALL
GASTEIGER

@<TRIPOS>ATOM
      1 C          63.4674   85.5709   12.9749 C.3     1  UNL1        0.1951
      2 C          63.9529   86.6005   13.9518 C.2     1  UNL1        0.2503
      3 O          65.0032   86.2408   14.9604 O.2     1  UNL1       -0.2725
      4 N          63.3880   87.9897   13.9200 N.am    1  UNL1       -0.2948
      5 H          62.6986   88.2258   13.2580 H       1  UNL1        0.1499
      6 C          63.8735   89.0193   14.8969 C.3     1  UNL1        0.1732
      7 C          63.1758   89.1917   16.2135 C.2     1  UNL1        0.3349
      8 O          63.5555   90.3242   17.1209 O.2     1  UNL1       -0.2483
      9 O          62.0984   88.2316   16.6228 O.3     1  UNL1       -0.4512
     10 C          62.4452   87.0128   17.4254 C.3     1  UNL1        0.1691
     11 C          62.8670   87.1532   18.8581 C.3     1  UNL1        0.0473
     12 C          62.3702   85.6537   16.7954 C.3     1  UNL1        0.0473
     13 C          65.0566   89.8764   14.5571 C.3     1  UNL1        0.0564
     14 C          64.8549   91.1970   13.8750 C.3     1  UNL1        0.1532
     15 S          65.8750   92.2856   14.0316 S.O2    1  UNL1       -0.0082
     16 C          66.8951   93.3741   14.1883 C.3     1  UNL1        0.1760
     17 O          65.3537   92.9524   12.7933 O.2     1  UNL1       -0.1729
     18 O          66.3964   91.6188   15.2700 O.2     1  UNL1       -0.1729
     19 C          64.1668   84.2482   12.8697 C.3     1  UNL1        0.0653
     20 C          63.3994   82.9756   13.0738 C.ar    1  UNL1       -0.0192
     21 C          63.5702   81.8348   12.1150 C.ar    1  UNL1       -0.0042
     22 C          62.8027   80.5623   12.3191 C.ar    1  UNL1       -0.0003
     23 C          61.8645   80.4305   13.4819 C.ar    1  UNL1       -0.0000
     24 C          61.6937   81.5713   14.4407 C.ar    1  UNL1       -0.0003
     25 C          62.4611   82.8439   14.2367 C.ar    1  UNL1       -0.0042
     26 O          62.2823   85.8641   12.1032 O.3     1  UNL1       -0.3453
     27 C          62.4662   86.0548   10.6268 C.3     1  UNL1        0.1583
     28 C          61.3206   86.5312    9.7837 C.3     1  UNL1        0.0840
     29 C          61.1406   85.9988    8.3930 C.3     1  UNL1        0.0169
     30 C          59.8402   86.2035    7.6740 C.3     1  UNL1        0.0015
     31 C          62.0452   84.6325    6.3769 C.3     1  UNL1        0.0000
     32 C          62.2611   85.2617    7.7213 C.3     1  UNL1        0.0014
     33 N          60.3550   87.5400   10.3314 N.3     1  UNL1       -0.2954
     34 H          60.1920   87.2920   11.3072 H       1  UNL1        0.1233
     35 C          60.7010   88.9994   10.3075 C.3     1  UNL1        0.0851
     36 C          61.4455   89.6125   11.4563 C.3     1  UNL1        0.0774
     37 N          60.8071   89.6828   12.8118 N.3     1  UNL1       -0.3204
     38 H          61.4498   90.1266   13.4678 H       1  UNL1        0.1189
     39 H          60.5894   88.7399   13.1344 H       1  UNL1        0.1189
     40 C          62.8284   90.1555   11.2496 C.3     1  UNL1        0.0703
     41 S          63.0889   91.1471   10.1547 S.3     1  UNL1       -0.1665
     42 H          62.8958   90.5509    8.9477 H       1  UNL1        0.1023
@<TRIPOS>BOND
     1    31    32    1
     2    32    29    1
     3    29    30    1
     4    29    28    1
     5    28    27    1
     6    27    26    1
     7    26     1    1
     8     1    19    1
     9    19    20    1
    10    20    21   ar
    11    21    22   ar
    12    22    23   ar
    13    23    24   ar
    14    24    25   ar
    15     1     2    1
    16     2     3    2
    17     2     4   am
    18     4     6    1
    19     6    13    1
    20    13    14    1
    21    14    15    1
    22    15    16    1
    23    15    17    2
    24    15    18    2
    25     6     7    1
    26     7     8    2
    27     7     9    1
    28     9    10    1
    29    10    11    1
    30    10    12    1
    31    28    33    1
    32    33    35    1
    33    35    36    1
    34    36    37    1
    35    36    40    1
    36    40    41    1
    37    25    20   ar
    38     4     5    1
    39    33    34    1
    40    37    38    1
    41    37    39    1
    42    41    42    1
