@<TRIPOS>MOLECULE
*****
 38 42 0 0 0
SMALL
GASTEIGER

@<TRIPOS>ATOM
      1 C          63.2292   90.2886   12.7489 C.3     1  UNL1        0.1225
      2 O          62.8070   90.9935   11.4940 O.3     1  UNL1       -0.3559
      3 C          62.3947   90.1993   10.2903 C.3     1  UNL1        0.1441
      4 C          62.4046   88.7002   10.3414 C.3     1  UNL1        0.0589
      5 C          62.8268   87.9953   11.5963 C.3     1  UNL1        0.1466
      6 C          62.8367   86.4962   11.6474 C.ar    1  UNL1        0.0618
      7 C          62.4244   85.7020   10.4437 C.ar    1  UNL1        0.1407
      8 F          61.9585   86.0655    9.0649 F       1  UNL1       -0.2043
      9 C          62.4344   84.2029   10.4948 C.ar    1  UNL1        0.0319
     10 C          62.8566   83.4980   11.7497 C.ar    1  UNL1        0.0351
     11 C          63.2689   84.2923   12.9535 C.ar    1  UNL1        0.1737
     12 F          63.6911   83.5874   14.2085 F       1  UNL1       -0.2010
     13 C          63.2590   85.7914   12.9023 C.ar    1  UNL1        0.1655
     14 O          63.6713   86.5856   14.1062 O.3     1  UNL1       -0.4732
     15 C          63.6614   88.0847   14.0551 C.3     1  UNL1        0.2098
     16 C          63.2391   88.7895   12.8001 C.3     1  UNL1        0.0957
     17 S          62.4145   87.2011   10.3925 S.O2    1  UNL1        0.0094
     18 O          62.8888   87.2186    9.7520 O.2     1  UNL1       -0.1684
     19 O          61.1212   86.5626   10.8045 O.2     1  UNL1       -0.1684
     20 C          62.0022   86.4068    9.1887 C.ar    1  UNL1        0.1059
     21 C          63.0334   85.6680    8.3884 C.ar    1  UNL1        0.0192
     22 C          62.6211   84.8736    7.1845 C.ar    1  UNL1        0.0127
     23 C          61.1774   84.8182    6.7811 C.ar    1  UNL1        0.0578
     24 CL         60.7650   84.0240    5.5774 Cl      1  UNL1       -0.0822
     25 C          60.1461   85.5571    7.5815 C.ar    1  UNL1        0.0127
     26 C          60.5585   86.3513    8.7853 C.ar    1  UNL1        0.0192
     27 C          63.6415   91.0829   13.9528 C.3     1  UNL1        0.0550
     28 C          65.0513   91.0007   14.4587 C.3     1  UNL1        0.1534
     29 O          67.1538   91.1783   14.6767 O.2     1  UNL1       -0.1729
     30 S          66.1011   91.9186   13.9063 S.O2    1  UNL1       -0.0086
     31 O          65.0483   92.6590   13.1359 O.2     1  UNL1       -0.1729
     32 C          67.1509   92.8367   13.3538 C.3     1  UNL1        0.1664
     33 C          67.3545   92.9371   11.8711 C.3     1  UNL1        0.0779
     34 C          68.0494   91.9276   11.0063 C.3     1  UNL1        0.0189
     35 C          68.0234   92.4311    9.5936 C.3     1  UNL1        0.0185
     36 C          67.3123   93.7519    9.5853 C.3     1  UNL1        0.0686
     37 N          66.8989   94.0646   10.9929 N.3     1  UNL1       -0.2971
     38 H          65.8842   94.1547   11.0438 H       1  UNL1        0.1233
@<TRIPOS>BOND
     1    29    30    2
     2    30    31    2
     3    30    28    1
     4    28    27    1
     5     1    27    1
     6     1     2    1
     7     2     3    1
     8     3     4    1
     9     4     5    1
    10     5    17    1
    11    17    18    2
    12    17    19    2
    13    17    20    1
    14    20    21   ar
    15    21    22   ar
    16    22    23   ar
    17    23    24    1
    18    23    25   ar
    19    25    26   ar
    20     5     6    1
    21     6     7   ar
    22     7     8    1
    23     7     9   ar
    24     9    10   ar
    25    10    11   ar
    26    11    12    1
    27    11    13   ar
    28    13    14    1
    29    14    15    1
    30    16    15    1
    31    30    32    1
    32    33    32    1
    33    33    34    1
    34    34    35    1
    35    35    36    1
    36    36    37    1
    37    16     1    1
    38    37    33    1
    39    16     5    1
    40    26    20   ar
    41    13     6   ar
    42    37    38    1
@<TRIPOS>MOLECULE
*****
 38 42 0 0 0
SMALL
GASTEIGER

@<TRIPOS>ATOM
      1 C          64.0898   89.6505   13.8532 C.3     1  UNL1        0.1225
      2 O          64.6856   88.7883   14.9264 O.3     1  UNL1       -0.3559
      3 C          64.5769   87.2951   14.8352 C.3     1  UNL1        0.1441
      4 C          63.8725   86.6641   13.6709 C.3     1  UNL1        0.0589
      5 C          63.2768   87.5263   12.5977 C.3     1  UNL1        0.1466
      6 C          62.5724   86.8952   11.4334 C.ar    1  UNL1        0.0618
      7 C          62.4637   85.4020   11.3422 C.ar    1  UNL1        0.1407
      8 F          62.9282   84.2685   12.2081 F       1  UNL1       -0.2043
      9 C          61.7593   84.7710   10.1779 C.ar    1  UNL1        0.0319
     10 C          61.1635   85.6332    9.1048 C.ar    1  UNL1        0.0351
     11 C          61.2722   87.1264    9.1960 C.ar    1  UNL1        0.1737
     12 F          60.6764   87.9887    8.1229 F       1  UNL1       -0.2010
     13 C          61.9766   87.7575   10.3603 C.ar    1  UNL1        0.1655
     14 O          62.0853   89.2508   10.4515 O.3     1  UNL1       -0.4732
     15 C          62.7897   89.8818   11.6158 C.3     1  UNL1        0.2098
     16 C          63.3854   89.0195   12.6889 C.3     1  UNL1        0.0957
     17 S          63.1681   86.0330   12.5066 S.O2    1  UNL1        0.0094
     18 O          63.8426   85.6082   12.5009 O.2     1  UNL1       -0.1684
     19 O          61.6907   85.7794   12.4491 O.2     1  UNL1       -0.1684
     20 C          63.0594   84.5397   12.4154 C.ar    1  UNL1        0.1059
     21 C          63.8300   83.7943   11.3664 C.ar    1  UNL1        0.0192
     22 C          63.7213   82.3009   11.2752 C.ar    1  UNL1        0.0127
     23 C          62.8419   81.5531   12.2330 C.ar    1  UNL1        0.0578
     24 CL         62.7331   80.0599   12.1419 Cl      1  UNL1       -0.0822
     25 C          62.0712   82.2986   13.2820 C.ar    1  UNL1        0.0127
     26 C          62.1799   83.7919   13.3732 C.ar    1  UNL1        0.0192
     27 C          64.1985   91.1439   13.9444 C.3     1  UNL1        0.0550
     28 C          65.5468   91.8006   13.9194 C.3     1  UNL1        0.1534
     29 O          66.1541   93.8250   14.1014 O.2     1  UNL1       -0.1729
     30 S          65.8196   92.9169   12.9553 S.O2    1  UNL1       -0.0086
     31 O          65.4851   92.0088   11.8093 O.2     1  UNL1       -0.1729
     32 C          66.0924   94.0332   11.9912 C.3     1  UNL1        0.1664
     33 C          66.9327   93.7843   10.7739 C.3     1  UNL1        0.0779
     34 C          66.9179   94.5944    9.5116 C.3     1  UNL1        0.0189
     35 C          67.9114   93.9923    8.5626 C.3     1  UNL1        0.0185
     36 C          68.5403   92.8100    9.2385 C.3     1  UNL1        0.0686
     37 N          67.9354   92.6815   10.6051 N.3     1  UNL1       -0.2971
     38 H          68.6633   92.7638   11.3149 H       1  UNL1        0.1233
@<TRIPOS>BOND
     1    29    30    2
     2    30    31    2
     3    30    28    1
     4    28    27    1
     5     1    27    1
     6     1     2    1
     7     2     3    1
     8     3     4    1
     9     4     5    1
    10     5    17    1
    11    17    18    2
    12    17    19    2
    13    17    20    1
    14    20    21   ar
    15    21    22   ar
    16    22    23   ar
    17    23    24    1
    18    23    25   ar
    19    25    26   ar
    20     5     6    1
    21     6     7   ar
    22     7     8    1
    23     7     9   ar
    24     9    10   ar
    25    10    11   ar
    26    11    12    1
    27    11    13   ar
    28    13    14    1
    29    14    15    1
    30    16    15    1
    31    30    32    1
    32    33    32    1
    33    33    34    1
    34    34    35    1
    35    35    36    1
    36    36    37    1
    37    16     1    1
    38    37    33    1
    39    16     5    1
    40    26    20   ar
    41    13     6   ar
    42    37    38    1
@<TRIPOS>MOLECULE
*****
 38 42 0 0 0
SMALL
GASTEIGER

@<TRIPOS>ATOM
      1 C          59.5620   88.6196    7.8139 C.3     1  UNL1        0.1225
      2 O          59.3036   87.2529    7.2524 O.3     1  UNL1       -0.3559
      3 C          59.9376   86.0499    7.8853 C.3     1  UNL1        0.1441
      4 C          60.8301   86.2135    9.0798 C.3     1  UNL1        0.0589
      5 C          61.0885   87.5802    9.6413 C.3     1  UNL1        0.1466
      6 C          61.9809   87.7439   10.8358 C.ar    1  UNL1        0.0618
      7 C          62.6150   86.5408   11.4687 C.ar    1  UNL1        0.1407
      8 F          62.5775   85.0694   11.1792 F       1  UNL1       -0.2043
      9 C          63.5074   86.7045   12.6632 C.ar    1  UNL1        0.0319
     10 C          63.7658   88.0712   13.2247 C.ar    1  UNL1        0.0351
     11 C          63.1318   89.2742   12.5918 C.ar    1  UNL1        0.1737
     12 F          63.3902   90.6410   13.1533 F       1  UNL1       -0.2010
     13 C          62.2393   89.1105   11.3973 C.ar    1  UNL1        0.1655
     14 O          61.6053   90.3137   10.7644 O.3     1  UNL1       -0.4732
     15 C          60.7128   90.1500    9.5699 C.3     1  UNL1        0.2098
     16 C          60.4545   88.7832    9.0084 C.3     1  UNL1        0.0957
     17 S          61.7225   86.3772   10.2743 S.O2    1  UNL1        0.0094
     18 O          61.4126   86.1062   10.9569 O.2     1  UNL1       -0.1684
     19 O          62.8441   86.0255    9.3424 O.2     1  UNL1       -0.1684
     20 C          62.3566   85.1741   10.9072 C.ar    1  UNL1        0.1059
     21 C          63.4577   84.4451   10.1958 C.ar    1  UNL1        0.0192
     22 C          64.0918   83.2420   10.8288 C.ar    1  UNL1        0.0127
     23 C          63.6247   82.7680   12.1731 C.ar    1  UNL1        0.0578
     24 CL         64.2588   81.5649   12.8061 Cl      1  UNL1       -0.0822
     25 C          62.5236   83.4971   12.8845 C.ar    1  UNL1        0.0127
     26 C          61.8896   84.7001   12.2515 C.ar    1  UNL1        0.0192
     27 C          58.9280   89.8227    7.1809 C.3     1  UNL1        0.0550
     28 C          58.9016   89.9581    5.6873 C.3     1  UNL1        0.1534
     29 O          60.6389   91.0257    5.1027 O.2     1  UNL1       -0.1729
     30 S          59.1634   91.2905    5.0502 S.O2    1  UNL1       -0.0086
     31 O          57.6880   91.5554    4.9977 O.2     1  UNL1       -0.1729
     32 C          59.4252   92.6231    4.4131 C.3     1  UNL1        0.1664
     33 C          60.1532   92.6983    3.1038 C.3     1  UNL1        0.0779
     34 C          59.5417   93.0187    1.7722 C.3     1  UNL1        0.0189
     35 C          60.6311   92.9848    0.7416 C.3     1  UNL1        0.0185
     36 C          61.9160   92.6434    1.4363 C.3     1  UNL1        0.0686
     37 N          61.6206   92.4664    2.8963 N.3     1  UNL1       -0.2971
     38 H          62.1581   93.1397    3.4423 H       1  UNL1        0.1233
@<TRIPOS>BOND
     1    29    30    2
     2    30    31    2
     3    30    28    1
     4    28    27    1
     5     1    27    1
     6     1     2    1
     7     2     3    1
     8     3     4    1
     9     4     5    1
    10     5    17    1
    11    17    18    2
    12    17    19    2
    13    17    20    1
    14    20    21   ar
    15    21    22   ar
    16    22    23   ar
    17    23    24    1
    18    23    25   ar
    19    25    26   ar
    20     5     6    1
    21     6     7   ar
    22     7     8    1
    23     7     9   ar
    24     9    10   ar
    25    10    11   ar
    26    11    12    1
    27    11    13   ar
    28    13    14    1
    29    14    15    1
    30    16    15    1
    31    30    32    1
    32    33    32    1
    33    33    34    1
    34    34    35    1
    35    35    36    1
    36    36    37    1
    37    16     1    1
    38    37    33    1
    39    16     5    1
    40    26    20   ar
    41    13     6   ar
    42    37    38    1
@<TRIPOS>MOLECULE
*****
 38 42 0 0 0
SMALL
GASTEIGER

@<TRIPOS>ATOM
      1 C          62.5815   89.1873   11.8701 C.3     1  UNL1        0.1225
      2 O          62.9663   88.4349   13.1093 O.3     1  UNL1       -0.3559
      3 C          64.0663   88.9510   13.9888 C.3     1  UNL1        0.1441
      4 C          64.7814   90.2196   13.6292 C.3     1  UNL1        0.0589
      5 C          64.3965   90.9720   12.3900 C.3     1  UNL1        0.1466
      6 C          65.1116   92.2406   12.0304 C.ar    1  UNL1        0.0618
      7 C          66.2116   92.7567   12.9100 C.ar    1  UNL1        0.1407
      8 F          66.8386   92.2759   14.1851 F       1  UNL1       -0.2043
      9 C          66.9267   94.0253   12.5504 C.ar    1  UNL1        0.0319
     10 C          66.5418   94.7778   11.3112 C.ar    1  UNL1        0.0351
     11 C          65.4419   94.2617   10.4316 C.ar    1  UNL1        0.1737
     12 F          65.0570   95.0142    9.1924 F       1  UNL1       -0.2010
     13 C          64.7268   92.9931   10.7913 C.ar    1  UNL1        0.1655
     14 O          63.6268   92.4770    9.9116 O.3     1  UNL1       -0.4732
     15 C          62.9117   91.2084   10.2712 C.3     1  UNL1        0.2098
     16 C          63.2966   90.4559   11.5105 C.3     1  UNL1        0.0957
     17 S          65.4965   91.4881   13.2696 S.O2    1  UNL1        0.0094
     18 O          66.2493   91.3727   13.0343 O.2     1  UNL1       -0.1684
     19 O          64.7735   92.1181   14.4231 O.2     1  UNL1       -0.1684
     20 C          66.5965   92.0043   14.1493 C.ar    1  UNL1        0.1059
     21 C          66.2664   92.8375   15.3521 C.ar    1  UNL1        0.0192
     22 C          67.3664   93.3537   16.2317 C.ar    1  UNL1        0.0127
     23 C          68.7964   93.0366   15.9085 C.ar    1  UNL1        0.0578
     24 CL         69.8964   93.5527   16.7881 Cl      1  UNL1       -0.0822
     25 C          69.1264   92.2033   14.7056 C.ar    1  UNL1        0.0127
     26 C          68.0265   91.6872   13.8260 C.ar    1  UNL1        0.0192
     27 C          61.4815   88.6712   10.9905 C.3     1  UNL1        0.0550
     28 C          61.7767   87.6268    9.9551 C.3     1  UNL1        0.1534
     29 O          61.1209   86.3910   11.5496 O.2     1  UNL1       -0.1729
     30 S          62.0317   86.2086   10.3719 S.O2    1  UNL1       -0.0086
     31 O          62.9424   86.0262    9.1941 O.2     1  UNL1       -0.1729
     32 C          62.2866   84.7903   10.7886 C.3     1  UNL1        0.1664
     33 C          62.7093   84.4864   12.1953 C.3     1  UNL1        0.0779
     34 C          62.6901   83.1368   12.8496 C.3     1  UNL1        0.0189
     35 C          63.1944   83.2950   14.2534 C.3     1  UNL1        0.0185
     36 C          63.5253   84.7425   14.4667 C.3     1  UNL1        0.0686
     37 N          63.2255   85.4788   13.1948 N.3     1  UNL1       -0.2971
     38 H          64.0754   85.9172   12.8400 H       1  UNL1        0.1233
@<TRIPOS>BOND
     1    29    30    2
     2    30    31    2
     3    30    28    1
     4    28    27    1
     5     1    27    1
     6     1     2    1
     7     2     3    1
     8     3     4    1
     9     4     5    1
    10     5    17    1
    11    17    18    2
    12    17    19    2
    13    17    20    1
    14    20    21   ar
    15    21    22   ar
    16    22    23   ar
    17    23    24    1
    18    23    25   ar
    19    25    26   ar
    20     5     6    1
    21     6     7   ar
    22     7     8    1
    23     7     9   ar
    24     9    10   ar
    25    10    11   ar
    26    11    12    1
    27    11    13   ar
    28    13    14    1
    29    14    15    1
    30    16    15    1
    31    30    32    1
    32    33    32    1
    33    33    34    1
    34    34    35    1
    35    35    36    1
    36    36    37    1
    37    16     1    1
    38    37    33    1
    39    16     5    1
    40    26    20   ar
    41    13     6   ar
    42    37    38    1
@<TRIPOS>MOLECULE
*****
 38 42 0 0 0
SMALL
GASTEIGER

@<TRIPOS>ATOM
      1 C          60.1711   93.0216    1.6295 C.3     1  UNL1        0.1225
      2 O          59.3425   92.2446    0.6499 O.3     1  UNL1       -0.3559
      3 C          59.7156   92.2306   -0.8029 C.3     1  UNL1        0.1441
      4 C          60.9173   92.9935   -1.2760 C.3     1  UNL1        0.0589
      5 C          61.7459   93.7705   -0.2964 C.3     1  UNL1        0.1466
      6 C          62.9476   94.5334   -0.7696 C.ar    1  UNL1        0.0618
      7 C          63.3207   94.5193   -2.2223 C.ar    1  UNL1        0.1407
      8 F          62.7367   93.8700   -3.4420 F       1  UNL1       -0.2043
      9 C          64.5224   95.2823   -2.6955 C.ar    1  UNL1        0.0319
     10 C          65.3510   96.0593   -1.7159 C.ar    1  UNL1        0.0351
     11 C          64.9779   96.0733   -0.2631 C.ar    1  UNL1        0.1737
     12 F          65.8065   96.8504    0.7166 F       1  UNL1       -0.2010
     13 C          63.7762   95.3104    0.2100 C.ar    1  UNL1        0.1655
     14 O          63.4031   95.3245    1.6629 O.3     1  UNL1       -0.4732
     15 C          62.2014   94.5616    2.1360 C.3     1  UNL1        0.2098
     16 C          61.3728   93.7846    1.1563 C.3     1  UNL1        0.0957
     17 S          62.1190   93.7564   -1.7492 S.O2    1  UNL1        0.0094
     18 O          62.6859   93.2480   -1.9852 O.2     1  UNL1       -0.1684
     19 O          61.2296   94.7971   -2.3624 O.2     1  UNL1       -0.1684
     20 C          62.4921   93.7424   -3.2020 C.ar    1  UNL1        0.1059
     21 C          63.4470   92.7086   -3.7212 C.ar    1  UNL1        0.0192
     22 C          63.8201   92.6946   -5.1740 C.ar    1  UNL1        0.0127
     23 C          63.2383   93.7143   -6.1076 C.ar    1  UNL1        0.0578
     24 CL         63.6113   93.7003   -7.5604 Cl      1  UNL1       -0.0822
     25 C          62.2834   94.7481   -5.5884 C.ar    1  UNL1        0.0127
     26 C          61.9103   94.7621   -4.1356 C.ar    1  UNL1        0.0192
     27 C          59.7980   93.0357    3.0823 C.3     1  UNL1        0.0550
     28 C          60.3689   92.0074    4.0133 C.3     1  UNL1        0.1534
     29 O          60.6558   90.5486    5.5263 O.2     1  UNL1       -0.1729
     30 S          59.4710   91.2818    4.9709 S.O2    1  UNL1       -0.0086
     31 O          58.2862   92.0150    4.4155 O.2     1  UNL1       -0.1729
     32 C          58.5730   90.5562    5.9286 C.3     1  UNL1        0.1664
     33 C          59.1504   89.5601    6.8901 C.3     1  UNL1        0.0779
     34 C          59.0750   88.0673    6.7643 C.3     1  UNL1        0.0189
     35 C          59.7826   87.4666    7.9426 C.3     1  UNL1        0.0185
     36 C          60.2952   88.5881    8.7967 C.3     1  UNL1        0.0686
     37 N          59.9045   89.8820    8.1461 N.3     1  UNL1       -0.2971
     38 H          60.7399   90.4217    7.9197 H       1  UNL1        0.1233
@<TRIPOS>BOND
     1    29    30    2
     2    30    31    2
     3    30    28    1
     4    28    27    1
     5     1    27    1
     6     1     2    1
     7     2     3    1
     8     3     4    1
     9     4     5    1
    10     5    17    1
    11    17    18    2
    12    17    19    2
    13    17    20    1
    14    20    21   ar
    15    21    22   ar
    16    22    23   ar
    17    23    24    1
    18    23    25   ar
    19    25    26   ar
    20     5     6    1
    21     6     7   ar
    22     7     8    1
    23     7     9   ar
    24     9    10   ar
    25    10    11   ar
    26    11    12    1
    27    11    13   ar
    28    13    14    1
    29    14    15    1
    30    16    15    1
    31    30    32    1
    32    33    32    1
    33    33    34    1
    34    34    35    1
    35    35    36    1
    36    36    37    1
    37    16     1    1
    38    37    33    1
    39    16     5    1
    40    26    20   ar
    41    13     6   ar
    42    37    38    1
@<TRIPOS>MOLECULE
*****
 38 42 0 0 0
SMALL
GASTEIGER

@<TRIPOS>ATOM
      1 C          59.8619   90.7920    5.3669 C.3     1  UNL1        0.1225
      2 O          58.4253   91.2151    5.2823 O.3     1  UNL1       -0.3559
      3 C          57.9794   92.1418    4.1904 C.3     1  UNL1        0.1441
      4 C          58.9701   92.6453    3.1829 C.3     1  UNL1        0.0589
      5 C          60.4067   92.2223    3.2675 C.3     1  UNL1        0.1466
      6 C          61.3974   92.7259    2.2601 C.ar    1  UNL1        0.0618
      7 C          60.9515   93.6525    1.1681 C.ar    1  UNL1        0.1407
      8 F          59.6337   94.2629    0.7927 F       1  UNL1       -0.2043
      9 C          61.9422   94.1561    0.1607 C.ar    1  UNL1        0.0319
     10 C          63.3788   93.7330    0.2452 C.ar    1  UNL1        0.0351
     11 C          63.8247   92.8064    1.3372 C.ar    1  UNL1        0.1737
     12 F          65.2614   92.3833    1.4218 F       1  UNL1       -0.2010
     13 C          62.8340   92.3028    2.3446 C.ar    1  UNL1        0.1655
     14 O          63.2799   91.3761    3.4366 O.3     1  UNL1       -0.4732
     15 C          62.2892   90.8725    4.4440 C.3     1  UNL1        0.2098
     16 C          60.8526   91.2956    4.3595 C.3     1  UNL1        0.0957
     17 S          59.9608   93.1489    2.1755 S.O2    1  UNL1        0.0094
     18 O          59.7329   92.8282    1.4822 O.2     1  UNL1       -0.1684
     19 O          60.0941   94.5147    2.7815 O.2     1  UNL1       -0.1684
     20 C          59.5149   94.0757    1.0835 C.ar    1  UNL1        0.1059
     21 C          58.8699   93.5227   -0.1526 C.ar    1  UNL1        0.0192
     22 C          58.4240   94.4495   -1.2446 C.ar    1  UNL1        0.0127
     23 C          58.6232   95.9292   -1.1004 C.ar    1  UNL1        0.0578
     24 CL         58.1773   96.8559   -2.1923 Cl      1  UNL1       -0.0822
     25 C          59.2683   96.4821    0.1358 C.ar    1  UNL1        0.0127
     26 C          59.7142   95.5554    1.2277 C.ar    1  UNL1        0.0192
     27 C          60.3078   89.8653    6.4589 C.3     1  UNL1        0.0550
     28 C          59.3544   88.8511    7.0178 C.3     1  UNL1        0.1534
     29 O          58.7992   87.0009    7.8943 O.2     1  UNL1       -0.1729
     30 S          59.6765   88.1471    8.3025 S.O2    1  UNL1       -0.0086
     31 O          60.5537   89.2933    8.7107 O.2     1  UNL1       -0.1729
     32 C          59.9986   87.4430    9.5873 C.3     1  UNL1        0.1664
     33 C          61.1402   86.4718    9.6445 C.3     1  UNL1        0.0779
     34 C          61.6814   85.8193   10.8820 C.3     1  UNL1        0.0189
     35 C          62.8168   84.9268   10.4766 C.3     1  UNL1        0.0185
     36 C          62.9774   85.0278    8.9886 C.3     1  UNL1        0.0686
     37 N          61.9412   85.9827    8.4744 N.3     1  UNL1       -0.2971
     38 H          61.3299   85.5060    7.8115 H       1  UNL1        0.1233
@<TRIPOS>BOND
     1    29    30    2
     2    30    31    2
     3    30    28    1
     4    28    27    1
     5     1    27    1
     6     1     2    1
     7     2     3    1
     8     3     4    1
     9     4     5    1
    10     5    17    1
    11    17    18    2
    12    17    19    2
    13    17    20    1
    14    20    21   ar
    15    21    22   ar
    16    22    23   ar
    17    23    24    1
    18    23    25   ar
    19    25    26   ar
    20     5     6    1
    21     6     7   ar
    22     7     8    1
    23     7     9   ar
    24     9    10   ar
    25    10    11   ar
    26    11    12    1
    27    11    13   ar
    28    13    14    1
    29    14    15    1
    30    16    15    1
    31    30    32    1
    32    33    32    1
    33    33    34    1
    34    34    35    1
    35    35    36    1
    36    36    37    1
    37    16     1    1
    38    37    33    1
    39    16     5    1
    40    26    20   ar
    41    13     6   ar
    42    37    38    1
