@<TRIPOS>MOLECULE
*****
 29 31 0 0 0
SMALL
GASTEIGER

@<TRIPOS>ATOM
      1 C          64.7476   91.7335   12.6852 C.ar    1  UNL1        0.1724
      2 C          65.6189   91.4184   13.8648 C.ar    1  UNL1        0.0402
      3 C          65.3362   90.2076   14.7039 C.ar    1  UNL1        0.0078
      4 C          64.1822   89.3120   14.3634 C.ar    1  UNL1        0.0566
      5 C          63.3108   89.6271   13.1838 C.ar    1  UNL1        0.0445
      6 C          63.5936   90.8379   12.3447 C.ar    1  UNL1        0.1722
      7 C          63.8994   88.1012   15.2025 C.2     1  UNL1        0.2462
      8 O          63.2565   88.2553   16.5489 O.2     1  UNL1       -0.2701
      9 N          64.2596   86.7363   14.6952 N.am    1  UNL1       -0.2956
     10 H          64.6816   86.6352   13.8115 H       1  UNL1        0.1501
     11 C          63.9769   85.5256   15.5343 C.3     1  UNL1        0.1366
     12 C          63.5991   84.2303   14.8787 C.ar    1  UNL1        0.0855
     13 C          64.4007   83.4999   13.8424 C.ar    1  UNL1        0.0530
     14 S          63.6505   82.2563   13.4676 S.2     1  UNL1       -0.0705
     15 C          62.3851   82.2181   14.2723 C.ar    1  UNL1        0.0883
     16 C          61.3358   81.1478   14.2150 C.3     1  UNL1        0.0594
     17 N          62.3534   83.4381   15.1444 N.ar    1  UNL1       -0.2453
     18 C          66.1520   93.8685   12.2170 C.3     1  UNL1        0.2526
     19 O          65.0303   92.9443   11.8461 O.3     1  UNL1       -0.4684
     20 O          62.7222   91.1530   11.1651 O.3     1  UNL1       -0.4760
     21 C          62.0769   90.0419   10.3912 C.3     1  UNL1        0.1688
     22 C          62.7464   88.7025   10.3023 C.3     1  UNL1        0.0609
     23 C          62.1011   87.5913    9.5284 C.3     1  UNL1        0.0758
     24 N          60.7863   87.8195    8.8435 N.3     1  UNL1       -0.2737
     25 C          60.1167   89.1588    8.9324 C.3     1  UNL1        0.0758
     26 C          60.7620   90.2700    9.7063 C.3     1  UNL1        0.0609
     27 C          60.1410   86.7084    8.0696 C.3     1  UNL1        0.0576
     28 C          60.9772   85.5860    7.5301 C.3     1  UNL1        0.0173
     29 C          58.6594   86.7195    7.8352 C.3     1  UNL1        0.0173
@<TRIPOS>BOND
     1    18    19    1
     2    19     1    1
     3     1     2   ar
     4     2     3   ar
     5     3     4   ar
     6     4     7    1
     7     7     8    2
     8     7     9   am
     9     9    11    1
    10    11    12    1
    11    12    13   ar
    12    13    14   ar
    13    14    15   ar
    14    15    16    1
    15    15    17   ar
    16     4     5   ar
    17     5     6   ar
    18     6    20    1
    19    20    21    1
    20    21    22    1
    21    22    23    1
    22    23    24    1
    23    24    27    1
    24    27    28    1
    25    27    29    1
    26    24    25    1
    27    25    26    1
    28     6     1   ar
    29    26    21    1
    30    17    12   ar
    31     9    10    1
@<TRIPOS>MOLECULE
*****
 29 31 0 0 0
SMALL
GASTEIGER

@<TRIPOS>ATOM
      1 C          60.5306   88.5241    8.9846 C.ar    1  UNL1        0.1724
      2 C          60.3114   87.0756    8.6629 C.ar    1  UNL1        0.0402
      3 C          61.0381   86.0168    9.4381 C.ar    1  UNL1        0.0078
      4 C          61.9840   86.4066   10.5350 C.ar    1  UNL1        0.0566
      5 C          62.2032   87.8551   10.8568 C.ar    1  UNL1        0.0445
      6 C          61.4765   88.9139   10.0816 C.ar    1  UNL1        0.1722
      7 C          62.7107   85.3478   11.3102 C.2     1  UNL1        0.2462
      8 O          63.1647   84.0940   10.6233 O.2     1  UNL1       -0.2701
      9 N          62.9833   85.5428   12.7722 N.am    1  UNL1       -0.2956
     10 H          62.6853   86.3657   13.2231 H       1  UNL1        0.1501
     11 C          63.7100   84.4840   13.5474 C.3     1  UNL1        0.1366
     12 C          63.1560   83.0917   13.6163 C.ar    1  UNL1        0.0855
     13 C          63.9008   81.8297   13.2957 C.ar    1  UNL1        0.0530
     14 S          62.9652   80.6750   13.4991 S.2     1  UNL1       -0.0705
     15 C          61.6422   81.2234   13.9453 C.ar    1  UNL1        0.0883
     16 C          60.4165   80.4193   14.2633 C.3     1  UNL1        0.0594
     17 N          61.7602   82.7170   14.0178 N.ar    1  UNL1       -0.2453
     18 C          59.3832   89.3202    6.7938 C.3     1  UNL1        0.2526
     19 O          59.8039   89.5829    8.2094 O.3     1  UNL1       -0.4684
     20 O          61.6957   90.3625   10.4034 O.3     1  UNL1       -0.4760
     21 C          62.8220   90.7679   11.3072 C.3     1  UNL1        0.1688
     22 C          62.8409   90.3078   12.7348 C.3     1  UNL1        0.0609
     23 C          63.9672   90.7132   13.6387 C.3     1  UNL1        0.0758
     24 N          65.0748   91.5787   13.1150 N.3     1  UNL1       -0.2737
     25 C          65.0560   92.0388   11.6874 C.3     1  UNL1        0.0758
     26 C          63.9296   91.6334   10.7835 C.3     1  UNL1        0.0609
     27 C          66.2011   91.9840   14.0188 C.3     1  UNL1        0.0576
     28 C          67.6088   92.0025   13.5010 C.3     1  UNL1        0.0173
     29 C          65.9199   92.3709   15.4405 C.3     1  UNL1        0.0173
@<TRIPOS>BOND
     1    18    19    1
     2    19     1    1
     3     1     2   ar
     4     2     3   ar
     5     3     4   ar
     6     4     7    1
     7     7     8    2
     8     7     9   am
     9     9    11    1
    10    11    12    1
    11    12    13   ar
    12    13    14   ar
    13    14    15   ar
    14    15    16    1
    15    15    17   ar
    16     4     5   ar
    17     5     6   ar
    18     6    20    1
    19    20    21    1
    20    21    22    1
    21    22    23    1
    22    23    24    1
    23    24    27    1
    24    27    28    1
    25    27    29    1
    26    24    25    1
    27    25    26    1
    28     6     1   ar
    29    26    21    1
    30    17    12   ar
    31     9    10    1
@<TRIPOS>MOLECULE
*****
 29 31 0 0 0
SMALL
GASTEIGER

@<TRIPOS>ATOM
      1 C          60.4726   88.6461    9.7393 C.ar    1  UNL1        0.1724
      2 C          60.0825   89.9598   10.3490 C.ar    1  UNL1        0.0402
      3 C          61.1204   90.8174   11.0104 C.ar    1  UNL1        0.0078
      4 C          62.5484   90.3612   11.0619 C.ar    1  UNL1        0.0566
      5 C          62.9385   89.0475   10.4522 C.ar    1  UNL1        0.0445
      6 C          61.9006   88.1899    9.7908 C.ar    1  UNL1        0.1722
      7 C          63.5863   91.2188   11.7233 C.2     1  UNL1        0.2462
      8 O          63.5943   91.3702   13.2155 O.2     1  UNL1       -0.2701
      9 N          64.6162   91.9249   10.8923 N.am    1  UNL1       -0.2956
     10 H          64.6110   91.8256    9.9129 H       1  UNL1        0.1501
     11 C          65.6541   92.7825   11.5536 C.3     1  UNL1        0.1366
     12 C          66.0681   94.0793   10.9235 C.ar    1  UNL1        0.0855
     13 C          66.0641   95.4237   11.5888 C.ar    1  UNL1        0.0530
     14 S          66.5522   96.4347   10.5940 S.2     1  UNL1       -0.0705
     15 C          66.8578   95.7151    9.3138 C.ar    1  UNL1        0.0883
     16 C          67.3724   96.3412    8.0516 C.3     1  UNL1        0.0594
     17 N          66.5586   94.2594    9.5175 N.ar    1  UNL1       -0.2453
     18 C          59.2184   87.8810    7.5965 C.3     1  UNL1        0.2526
     19 O          59.4347   87.7885    9.0779 O.3     1  UNL1       -0.4684
     20 O          62.2908   86.8761    9.1810 O.3     1  UNL1       -0.4760
     21 C          62.5487   85.6884   10.0601 C.3     1  UNL1        0.1688
     22 C          62.0845   85.6960   11.4865 C.3     1  UNL1        0.0609
     23 C          62.3425   84.5083   12.3655 C.3     1  UNL1        0.0758
     24 N          63.0647   83.3130   11.8182 N.3     1  UNL1       -0.2737
     25 C          63.5289   83.3053   10.3919 C.3     1  UNL1        0.0758
     26 C          63.2709   84.4930    9.5128 C.3     1  UNL1        0.0609
     27 C          63.3226   82.1253   12.6973 C.3     1  UNL1        0.0576
     28 C          63.9534   82.3127   14.0453 C.3     1  UNL1        0.0173
     29 C          62.9499   80.7500   12.2284 C.3     1  UNL1        0.0173
@<TRIPOS>BOND
     1    18    19    1
     2    19     1    1
     3     1     2   ar
     4     2     3   ar
     5     3     4   ar
     6     4     7    1
     7     7     8    2
     8     7     9   am
     9     9    11    1
    10    11    12    1
    11    12    13   ar
    12    13    14   ar
    13    14    15   ar
    14    15    16    1
    15    15    17   ar
    16     4     5   ar
    17     5     6   ar
    18     6    20    1
    19    20    21    1
    20    21    22    1
    21    22    23    1
    22    23    24    1
    23    24    27    1
    24    27    28    1
    25    27    29    1
    26    24    25    1
    27    25    26    1
    28     6     1   ar
    29    26    21    1
    30    17    12   ar
    31     9    10    1
@<TRIPOS>MOLECULE
*****
 29 31 0 0 0
SMALL
GASTEIGER

@<TRIPOS>ATOM
      1 C          63.2517   88.4308   16.0485 C.ar    1  UNL1        0.1724
      2 C          63.2489   89.6787   16.8808 C.ar    1  UNL1        0.0402
      3 C          63.9425   90.9127   16.3846 C.ar    1  UNL1        0.0078
      4 C          64.6388   90.8988   15.0561 C.ar    1  UNL1        0.0566
      5 C          64.6416   89.6509   14.2238 C.ar    1  UNL1        0.0445
      6 C          63.9480   88.4169   14.7200 C.ar    1  UNL1        0.1722
      7 C          65.3324   92.1328   14.5599 C.2     1  UNL1        0.2462
      8 O          65.9890   93.0667   15.5328 O.2     1  UNL1       -0.2701
      9 N          65.3693   92.4329   13.0907 N.am    1  UNL1       -0.2956
     10 H          64.9384   91.8200   12.4521 H       1  UNL1        0.1501
     11 C          66.0629   93.6669   12.5945 C.3     1  UNL1        0.1366
     12 C          66.7658   93.6507   11.2694 C.ar    1  UNL1        0.0855
     13 C          66.7615   94.7561   10.2555 C.ar    1  UNL1        0.0530
     14 S          67.5895   94.3148    9.0851 S.2     1  UNL1       -0.0705
     15 C          68.1055   92.9367    9.3758 C.ar    1  UNL1        0.0883
     16 C          68.9775   92.1135    8.4747 C.3     1  UNL1        0.0594
     17 N          67.5965   92.5262   10.7257 N.ar    1  UNL1       -0.2453
     18 C          62.8269   86.6917   17.9313 C.3     1  UNL1        0.2526
     19 O          62.5581   87.1968   16.5447 O.3     1  UNL1       -0.4684
     20 O          63.9508   87.1690   13.8877 O.3     1  UNL1       -0.4760
     21 C          63.1640   87.1168   12.6117 C.3     1  UNL1        0.1688
     22 C          62.6783   85.7995   12.0834 C.3     1  UNL1        0.0609
     23 C          61.8915   85.7473   10.8074 C.3     1  UNL1        0.0758
     24 N          61.5903   87.0123   10.0597 N.3     1  UNL1       -0.2737
     25 C          62.0759   88.3295   10.5880 C.3     1  UNL1        0.0758
     26 C          62.8628   88.3818   11.8640 C.3     1  UNL1        0.0609
     27 C          60.8035   86.9601    8.7837 C.3     1  UNL1        0.0576
     28 C          60.9767   85.8050    7.8425 C.3     1  UNL1        0.0173
     29 C          59.8434   88.0629    8.4489 C.3     1  UNL1        0.0173
@<TRIPOS>BOND
     1    18    19    1
     2    19     1    1
     3     1     2   ar
     4     2     3   ar
     5     3     4   ar
     6     4     7    1
     7     7     8    2
     8     7     9   am
     9     9    11    1
    10    11    12    1
    11    12    13   ar
    12    13    14   ar
    13    14    15   ar
    14    15    16    1
    15    15    17   ar
    16     4     5   ar
    17     5     6   ar
    18     6    20    1
    19    20    21    1
    20    21    22    1
    21    22    23    1
    22    23    24    1
    23    24    27    1
    24    27    28    1
    25    27    29    1
    26    24    25    1
    27    25    26    1
    28     6     1   ar
    29    26    21    1
    30    17    12   ar
    31     9    10    1
@<TRIPOS>MOLECULE
*****
 29 31 0 0 0
SMALL
GASTEIGER

@<TRIPOS>ATOM
      1 C          60.6742   86.0848    7.7054 C.ar    1  UNL1        0.1724
      2 C          59.6827   87.2074    7.6222 C.ar    1  UNL1        0.0402
      3 C          59.8767   88.4423    8.4513 C.ar    1  UNL1        0.0078
      4 C          61.0621   88.5547    9.3635 C.ar    1  UNL1        0.0566
      5 C          62.0535   87.4322    9.4467 C.ar    1  UNL1        0.0445
      6 C          61.8595   86.1972    8.6176 C.ar    1  UNL1        0.1722
      7 C          61.2560   89.7896   10.1926 C.2     1  UNL1        0.2462
      8 O          60.0934   90.6950   10.4729 O.2     1  UNL1       -0.2701
      9 N          62.6126   90.1192   10.7412 N.am    1  UNL1       -0.2956
     10 H          63.3756   89.5250   10.5572 H       1  UNL1        0.1501
     11 C          62.8065   91.3541   11.5703 C.3     1  UNL1        0.1366
     12 C          64.1917   91.8330   11.8900 C.ar    1  UNL1        0.0855
     13 C          65.1967   92.3470   10.9022 C.ar    1  UNL1        0.0530
     14 S          66.4412   92.7136   11.6552 S.2     1  UNL1       -0.0705
     15 C          66.2052   92.4260   13.1084 C.ar    1  UNL1        0.0883
     16 C          67.1871   92.6444   14.2211 C.3     1  UNL1        0.0594
     17 N          64.8150   91.8818   13.2534 N.ar    1  UNL1       -0.2453
     18 C          61.5448   84.4196    5.9113 C.3     1  UNL1        0.2526
     19 O          60.4802   84.8499    6.8763 O.3     1  UNL1       -0.4684
     20 O          62.8510   85.0747    8.7008 O.3     1  UNL1       -0.4760
     21 C          63.0847   84.3757   10.0072 C.3     1  UNL1        0.1688
     22 C          64.0329   83.2155   10.0781 C.3     1  UNL1        0.0609
     23 C          64.2666   82.5165   11.3845 C.3     1  UNL1        0.0758
     24 N          63.5520   82.9776   12.6201 N.3     1  UNL1       -0.2737
     25 C          62.6038   84.1377   12.5494 C.3     1  UNL1        0.0758
     26 C          62.3701   84.8368   11.2429 C.3     1  UNL1        0.0609
     27 C          63.7857   82.2787   13.9266 C.3     1  UNL1        0.0576
     28 C          63.6241   80.7903   14.0203 C.3     1  UNL1        0.0173
     29 C          64.1809   83.0680   15.1393 C.3     1  UNL1        0.0173
@<TRIPOS>BOND
     1    18    19    1
     2    19     1    1
     3     1     2   ar
     4     2     3   ar
     5     3     4   ar
     6     4     7    1
     7     7     8    2
     8     7     9   am
     9     9    11    1
    10    11    12    1
    11    12    13   ar
    12    13    14   ar
    13    14    15   ar
    14    15    16    1
    15    15    17   ar
    16     4     5   ar
    17     5     6   ar
    18     6    20    1
    19    20    21    1
    20    21    22    1
    21    22    23    1
    22    23    24    1
    23    24    27    1
    24    27    28    1
    25    27    29    1
    26    24    25    1
    27    25    26    1
    28     6     1   ar
    29    26    21    1
    30    17    12   ar
    31     9    10    1
@<TRIPOS>MOLECULE
*****
 29 31 0 0 0
SMALL
GASTEIGER

@<TRIPOS>ATOM
      1 C          61.9535   86.9037   11.1136 C.ar    1  UNL1        0.1724
      2 C          61.7440   86.0557    9.8942 C.ar    1  UNL1        0.0402
      3 C          60.9276   86.5775    8.7491 C.ar    1  UNL1        0.0078
      4 C          60.3208   87.9472    8.8233 C.ar    1  UNL1        0.0566
      5 C          60.5304   88.7952   10.0427 C.ar    1  UNL1        0.0445
      6 C          61.3467   88.2734   11.1879 C.ar    1  UNL1        0.1722
      7 C          59.5045   88.4690    7.6782 C.2     1  UNL1        0.2462
      8 O          58.3366   87.6781    7.1680 O.2     1  UNL1       -0.2701
      9 N          59.8561   89.7817    7.0432 N.am    1  UNL1       -0.2956
     10 H          60.6227   90.3008    7.3781 H       1  UNL1        0.1501
     11 C          59.0398   90.3035    5.8981 C.3     1  UNL1        0.1366
     12 C          59.6778   91.1770    4.8588 C.ar    1  UNL1        0.0855
     13 C          58.9854   92.2320    4.0480 C.ar    1  UNL1        0.0530
     14 S          59.9999   92.8559    3.1360 S.2     1  UNL1       -0.0705
     15 C          61.3192   92.1864    3.3833 C.ar    1  UNL1        0.0883
     16 C          62.6109   92.4995    2.6878 C.3     1  UNL1        0.0594
     17 N          61.1202   91.1488    4.4480 N.ar    1  UNL1       -0.2453
     18 C          62.7809   84.9134   12.5642 C.3     1  UNL1        0.2526
     19 O          62.7699   86.3819   12.2587 O.3     1  UNL1       -0.4684
     20 O          61.5563   89.1215   12.4073 O.3     1  UNL1       -0.4760
     21 C          62.7527   90.0216   12.4983 C.3     1  UNL1        0.1688
     22 C          63.5080   90.1370   13.7892 C.3     1  UNL1        0.0609
     23 C          64.7044   91.0371   13.8802 C.3     1  UNL1        0.0758
     24 N          65.1456   91.8219   12.6804 N.3     1  UNL1       -0.2737
     25 C          64.3904   91.7065   11.3896 C.3     1  UNL1        0.0758
     26 C          63.1939   90.8064   11.2985 C.3     1  UNL1        0.0609
     27 C          66.3420   92.7220   12.7715 C.3     1  UNL1        0.0576
     28 C          66.2925   94.0979   12.1761 C.3     1  UNL1        0.0173
     29 C          67.5881   92.2462   13.4578 C.3     1  UNL1        0.0173
@<TRIPOS>BOND
     1    18    19    1
     2    19     1    1
     3     1     2   ar
     4     2     3   ar
     5     3     4   ar
     6     4     7    1
     7     7     8    2
     8     7     9   am
     9     9    11    1
    10    11    12    1
    11    12    13   ar
    12    13    14   ar
    13    14    15   ar
    14    15    16    1
    15    15    17   ar
    16     4     5   ar
    17     5     6   ar
    18     6    20    1
    19    20    21    1
    20    21    22    1
    21    22    23    1
    22    23    24    1
    23    24    27    1
    24    27    28    1
    25    27    29    1
    26    24    25    1
    27    25    26    1
    28     6     1   ar
    29    26    21    1
    30    17    12   ar
    31     9    10    1
@<TRIPOS>MOLECULE
*****
 29 31 0 0 0
SMALL
GASTEIGER

@<TRIPOS>ATOM
      1 C          64.0971   83.3663   13.8735 C.ar    1  UNL1        0.1724
      2 C          64.3246   83.6691   15.3249 C.ar    1  UNL1        0.0402
      3 C          64.2672   85.0861   15.8134 C.ar    1  UNL1        0.0078
      4 C          63.9824   86.2004   14.8505 C.ar    1  UNL1        0.0566
      5 C          63.7549   85.8976   13.3991 C.ar    1  UNL1        0.0445
      6 C          63.8123   84.4805   12.9107 C.ar    1  UNL1        0.1722
      7 C          63.9250   87.6175   15.3390 C.2     1  UNL1        0.2462
      8 O          63.2900   87.9298   16.6615 O.2     1  UNL1       -0.2701
      9 N          64.5026   88.7223   14.5049 N.am    1  UNL1       -0.2956
     10 H          64.9194   88.5173   13.6368 H       1  UNL1        0.1501
     11 C          64.4452   90.1394   14.9934 C.3     1  UNL1        0.1366
     12 C          65.2757   91.1963   14.3277 C.ar    1  UNL1        0.0855
     13 C          66.6683   91.5972   14.7150 C.ar    1  UNL1        0.0530
     14 S          67.1128   92.6866   13.7846 S.2     1  UNL1       -0.0705
     15 C          65.9948   92.9590   12.8223 C.ar    1  UNL1        0.0883
     16 C          66.0096   93.9743   11.7182 C.3     1  UNL1        0.0594
     17 N          64.8595   92.0380   13.1580 N.ar    1  UNL1       -0.2453
     18 C          62.8898   81.1581   13.2285 C.3     1  UNL1        0.2526
     19 O          64.1545   81.9492   13.3851 O.3     1  UNL1       -0.4684
     20 O          63.5848   84.1778   11.4592 O.3     1  UNL1       -0.4760
     21 C          62.6722   85.0469   10.6458 C.3     1  UNL1        0.1688
     22 C          61.6065   85.8564   11.3234 C.3     1  UNL1        0.0609
     23 C          60.6939   86.7256   10.5100 C.3     1  UNL1        0.0758
     24 N          60.8469   86.7853    9.0191 N.3     1  UNL1       -0.2737
     25 C          61.9125   85.9758    8.3414 C.3     1  UNL1        0.0758
     26 C          62.8252   85.1066    9.1548 C.3     1  UNL1        0.0609
     27 C          59.9342   87.6544    8.2057 C.3     1  UNL1        0.0576
     28 C          60.0800   89.1466    8.2535 C.3     1  UNL1        0.0173
     29 C          58.8758   87.0315    7.3445 C.3     1  UNL1        0.0173
@<TRIPOS>BOND
     1    18    19    1
     2    19     1    1
     3     1     2   ar
     4     2     3   ar
     5     3     4   ar
     6     4     7    1
     7     7     8    2
     8     7     9   am
     9     9    11    1
    10    11    12    1
    11    12    13   ar
    12    13    14   ar
    13    14    15   ar
    14    15    16    1
    15    15    17   ar
    16     4     5   ar
    17     5     6   ar
    18     6    20    1
    19    20    21    1
    20    21    22    1
    21    22    23    1
    22    23    24    1
    23    24    27    1
    24    27    28    1
    25    27    29    1
    26    24    25    1
    27    25    26    1
    28     6     1   ar
    29    26    21    1
    30    17    12   ar
    31     9    10    1
@<TRIPOS>MOLECULE
*****
 29 31 0 0 0
SMALL
GASTEIGER

@<TRIPOS>ATOM
      1 C          59.8132   88.6608    7.8874 C.ar    1  UNL1        0.1724
      2 C          59.7153   87.2753    7.3210 C.ar    1  UNL1        0.0402
      3 C          60.5109   86.1585    7.9290 C.ar    1  UNL1        0.0078
      4 C          61.4043   86.4271    9.1035 C.ar    1  UNL1        0.0566
      5 C          61.5022   87.8126    9.6700 C.ar    1  UNL1        0.0445
      6 C          60.7067   88.9294    9.0619 C.ar    1  UNL1        0.1722
      7 C          62.1999   85.3103    9.7116 C.2     1  UNL1        0.2462
      8 O          63.2392   84.5994    8.8964 O.2     1  UNL1       -0.2701
      9 N          61.9562   84.9043   11.1349 N.am    1  UNL1       -0.2956
     10 H          61.2741   85.3708   11.6699 H       1  UNL1        0.1501
     11 C          62.7518   83.7875   11.7429 C.3     1  UNL1        0.1366
     12 C          63.1948   83.8745   13.1735 C.ar    1  UNL1        0.0855
     13 C          63.8566   82.7818   13.9595 C.ar    1  UNL1        0.0530
     14 S          64.1245   83.3015   15.3409 S.2     1  UNL1       -0.0705
     15 C          63.6282   84.7154   15.4085 C.ar    1  UNL1        0.0883
     16 C          63.6948   85.6169   16.6056 C.3     1  UNL1        0.0594
     17 N          63.0536   85.0695   14.0690 N.ar    1  UNL1       -0.2453
     18 C          59.1592   90.0908    5.8193 C.3     1  UNL1        0.2526
     19 O          59.0176   89.7776    7.2793 O.3     1  UNL1       -0.4684
     20 O          60.8046   90.3149    9.6284 O.3     1  UNL1       -0.4760
     21 C          61.9454   90.6765   10.5327 C.3     1  UNL1        0.1688
     22 C          61.9146   90.2727   11.9771 C.3     1  UNL1        0.0609
     23 C          63.0554   90.6344   12.8814 C.3     1  UNL1        0.0758
     24 N          64.2270   91.3997   12.3414 N.3     1  UNL1       -0.2737
     25 C          64.2578   91.8035   10.8971 C.3     1  UNL1        0.0758
     26 C          63.1169   91.4419    9.9927 C.3     1  UNL1        0.0609
     27 C          65.3677   91.7614   13.2457 C.3     1  UNL1        0.0576
     28 C          65.6382   90.9453   14.4749 C.3     1  UNL1        0.0173
     29 C          66.2381   92.9390   12.9208 C.3     1  UNL1        0.0173
@<TRIPOS>BOND
     1    18    19    1
     2    19     1    1
     3     1     2   ar
     4     2     3   ar
     5     3     4   ar
     6     4     7    1
     7     7     8    2
     8     7     9   am
     9     9    11    1
    10    11    12    1
    11    12    13   ar
    12    13    14   ar
    13    14    15   ar
    14    15    16    1
    15    15    17   ar
    16     4     5   ar
    17     5     6   ar
    18     6    20    1
    19    20    21    1
    20    21    22    1
    21    22    23    1
    22    23    24    1
    23    24    27    1
    24    27    28    1
    25    27    29    1
    26    24    25    1
    27    25    26    1
    28     6     1   ar
    29    26    21    1
    30    17    12   ar
    31     9    10    1
@<TRIPOS>MOLECULE
*****
 29 31 0 0 0
SMALL
GASTEIGER

@<TRIPOS>ATOM
      1 C          63.5980   89.8318   12.8606 C.ar    1  UNL1        0.1724
      2 C          63.0160   90.8623   11.9391 C.ar    1  UNL1        0.0402
      3 C          62.1625   90.4367   10.7814 C.ar    1  UNL1        0.0078
      4 C          61.8908   88.9806   10.5452 C.ar    1  UNL1        0.0566
      5 C          62.4728   87.9500   11.4667 C.ar    1  UNL1        0.0445
      6 C          63.3264   88.3756   12.6244 C.ar    1  UNL1        0.1722
      7 C          61.0373   88.5550    9.3874 C.2     1  UNL1        0.2462
      8 O          60.7064   87.1050    9.1927 O.2     1  UNL1       -0.2701
      9 N          60.5146   89.5795    8.4245 N.am    1  UNL1       -0.2956
     10 H          60.7317   90.5312    8.5524 H       1  UNL1        0.1501
     11 C          59.6610   89.1539    7.2668 C.3     1  UNL1        0.1366
     12 C          59.2657   90.1524    6.2195 C.ar    1  UNL1        0.0855
     13 C          57.8643   90.5651    5.8792 C.ar    1  UNL1        0.0530
     14 S          57.9348   91.5812    4.7780 S.2     1  UNL1       -0.0705
     15 C          59.3798   91.7965    4.4378 C.ar    1  UNL1        0.0883
     16 C          59.9093   92.7308    3.3906 C.3     1  UNL1        0.0594
     17 N          60.2023   90.9135    5.3287 N.ar    1  UNL1       -0.2453
     18 C          63.8471   90.3984   15.3838 C.3     1  UNL1        0.2526
     19 O          64.4516   90.2573   14.0183 O.3     1  UNL1       -0.4684
     20 O          63.9084   87.3450   13.5459 O.3     1  UNL1       -0.4760
     21 C          63.4771   85.9125   13.4370 C.3     1  UNL1        0.1688
     22 C          63.1207   85.3362   12.0987 C.3     1  UNL1        0.0609
     23 C          62.6894   83.9037   11.9897 C.3     1  UNL1        0.0758
     24 N          62.6145   83.0474   13.2190 N.3     1  UNL1       -0.2737
     25 C          62.9709   83.6236   14.5572 C.3     1  UNL1        0.0758
     26 C          63.4022   85.0562   14.6662 C.3     1  UNL1        0.0609
     27 C          62.1833   81.6149   13.1100 C.3     1  UNL1        0.0576
     28 C          61.1997   81.0510   14.0922 C.3     1  UNL1        0.0173
     29 C          62.7356   80.7463   12.0190 C.3     1  UNL1        0.0173
@<TRIPOS>BOND
     1    18    19    1
     2    19     1    1
     3     1     2   ar
     4     2     3   ar
     5     3     4   ar
     6     4     7    1
     7     7     8    2
     8     7     9   am
     9     9    11    1
    10    11    12    1
    11    12    13   ar
    12    13    14   ar
    13    14    15   ar
    14    15    16    1
    15    15    17   ar
    16     4     5   ar
    17     5     6   ar
    18     6    20    1
    19    20    21    1
    20    21    22    1
    21    22    23    1
    22    23    24    1
    23    24    27    1
    24    27    28    1
    25    27    29    1
    26    24    25    1
    27    25    26    1
    28     6     1   ar
    29    26    21    1
    30    17    12   ar
    31     9    10    1
