@<TRIPOS>MOLECULE
*****
 29 32 0 0 0
SMALL
GASTEIGER

@<TRIPOS>ATOM
      1 C          62.6934   88.8129   11.7327 C.3     1  UNL1        0.0233
      2 C          63.2567   87.7449   12.6227 C.3     1  UNL1        0.0953
      3 C          63.0073   86.2993   12.3100 C.3     1  UNL1        0.1106
      4 N          63.5706   85.2314   13.2000 N.pl3   1  UNL1       -0.3041
      5 C          64.3833   85.6091   14.4028 C.3     1  UNL1        0.1123
      6 C          64.6327   87.0547   14.7156 C.3     1  UNL1        0.1149
      7 N          64.0694   88.1227   13.8256 N.pl3   1  UNL1       -0.2777
      8 C          64.3188   89.5684   14.1384 C.ar    1  UNL1        0.2035
      9 N          64.9815   90.4518   13.1234 N.ar    1  UNL1       -0.2133
     10 C          65.2309   91.8975   13.4361 C.ar    1  UNL1        0.1065
     11 C          64.8176   92.4597   14.7640 C.ar    1  UNL1        0.0815
     12 C          64.1549   91.5762   15.7790 C.ar    1  UNL1        0.2646
     13 O          63.7416   92.1384   17.1068 O.2     1  UNL1       -0.2668
     14 N          63.9055   90.1305   15.4662 N.ar    1  UNL1       -0.2667
     15 C          63.2428   89.2471   16.4812 C.3     1  UNL1        0.1363
     16 C          65.8936   92.7810   12.4211 C.ar    1  UNL1        0.1024
     17 C          66.5913   92.1741   11.2401 C.ar    1  UNL1        0.0414
     18 C          67.2540   93.0576   10.2250 C.ar    1  UNL1        0.1023
     19 N          67.2190   94.5479   10.3910 N.ar    1  UNL1       -0.2224
     20 C          66.5212   95.1549   11.5721 C.ar    1  UNL1        0.1989
     21 N          65.8585   94.2714   12.5871 N.ar    1  UNL1       -0.2224
     22 C          63.3212   83.7857   12.8872 C.ar    1  UNL1        0.0486
     23 C          64.2004   83.0681   11.9062 C.ar    1  UNL1        0.0146
     24 C          63.9510   81.6225   11.5934 C.ar    1  UNL1        0.0020
     25 C          62.8225   80.8943   12.2615 C.ar    1  UNL1        0.0104
     26 C          61.9433   81.6119   13.2424 C.ar    1  UNL1        0.0697
     27 C          62.1927   83.0576   13.5553 C.ar    1  UNL1        0.0248
     28 C          60.8148   80.8838   13.9105 C.1     1  UNL1        0.1005
     29 N          59.6863   80.1557   14.5786 N.1     1  UNL1       -0.1908
@<TRIPOS>BOND
     1     2     1    1
     2     2     3    1
     3     3     4    1
     4     4    22    1
     5    22    23   ar
     6    23    24   ar
     7    24    25   ar
     8    25    26   ar
     9    26    28    1
    10    28    29    3
    11    26    27   ar
    12     4     5    1
    13     5     6    1
    14     6     7    1
    15     7     8    1
    16     8     9   ar
    17     9    10   ar
    18    10    16    1
    19    16    17   ar
    20    17    18   ar
    21    18    19   ar
    22    19    20   ar
    23    20    21   ar
    24    10    11   ar
    25    11    12   ar
    26    12    13    2
    27    12    14   ar
    28    14    15    1
    29     7     2    1
    30    14     8   ar
    31    27    22   ar
    32    21    16   ar
@<TRIPOS>MOLECULE
*****
 29 32 0 0 0
SMALL
GASTEIGER

@<TRIPOS>ATOM
      1 C          62.8989   88.8829   11.8323 C.3     1  UNL1        0.0233
      2 C          63.3152   87.8697   12.8570 C.3     1  UNL1        0.0953
      3 C          62.9119   86.4337   12.6988 C.3     1  UNL1        0.1106
      4 N          63.3281   85.4204   13.7235 N.pl3   1  UNL1       -0.3041
      5 C          64.1477   85.8432   14.9065 C.3     1  UNL1        0.1123
      6 C          64.5511   87.2793   15.0647 C.3     1  UNL1        0.1149
      7 N          64.1348   88.2925   14.0400 N.pl3   1  UNL1       -0.2777
      8 C          64.5382   89.7286   14.1983 C.ar    1  UNL1        0.2035
      9 N          65.2767   90.4262   13.0946 N.ar    1  UNL1       -0.2133
     10 C          65.6801   91.8622   13.2529 C.ar    1  UNL1        0.1065
     11 C          65.3450   92.6007   14.5148 C.ar    1  UNL1        0.0815
     12 C          64.6065   91.9032   15.6184 C.ar    1  UNL1        0.2646
     13 O          64.2713   92.6416   16.8802 O.2     1  UNL1       -0.2668
     14 N          64.2031   90.4671   15.4601 N.ar    1  UNL1       -0.2667
     15 C          63.4645   89.7695   16.5637 C.3     1  UNL1        0.1363
     16 C          66.4187   92.5597   12.1492 C.ar    1  UNL1        0.1024
     17 C          65.9625   93.9084   11.6771 C.ar    1  UNL1        0.0414
     18 C          66.7011   94.6060   10.5735 C.ar    1  UNL1        0.1023
     19 N          67.8957   93.9548    9.9420 N.ar    1  UNL1       -0.2224
     20 C          68.3519   92.6061   10.4141 C.ar    1  UNL1        0.1989
     21 N          67.6133   91.9085   11.5177 N.ar    1  UNL1       -0.2224
     22 C          62.9247   83.9843   13.5653 C.ar    1  UNL1        0.0486
     23 C          62.2497   83.2660   14.6959 C.ar    1  UNL1        0.0146
     24 C          61.8463   81.8300   14.5377 C.ar    1  UNL1        0.0020
     25 C          62.1179   81.1122   13.2488 C.ar    1  UNL1        0.0104
     26 C          62.7930   81.8306   12.1182 C.ar    1  UNL1        0.0697
     27 C          63.1964   83.2667   12.2764 C.ar    1  UNL1        0.0248
     28 C          63.0646   81.1129   10.8293 C.1     1  UNL1        0.1005
     29 N          63.3362   80.3953    9.5405 N.1     1  UNL1       -0.1908
@<TRIPOS>BOND
     1     2     1    1
     2     2     3    1
     3     3     4    1
     4     4    22    1
     5    22    23   ar
     6    23    24   ar
     7    24    25   ar
     8    25    26   ar
     9    26    28    1
    10    28    29    3
    11    26    27   ar
    12     4     5    1
    13     5     6    1
    14     6     7    1
    15     7     8    1
    16     8     9   ar
    17     9    10   ar
    18    10    16    1
    19    16    17   ar
    20    17    18   ar
    21    18    19   ar
    22    19    20   ar
    23    20    21   ar
    24    10    11   ar
    25    11    12   ar
    26    12    13    2
    27    12    14   ar
    28    14    15    1
    29     7     2    1
    30    14     8   ar
    31    27    22   ar
    32    21    16   ar
@<TRIPOS>MOLECULE
*****
 29 32 0 0 0
SMALL
GASTEIGER

@<TRIPOS>ATOM
      1 C          62.5853   89.5898   12.3112 C.3     1  UNL1        0.0233
      2 C          63.7753   90.3300   12.8458 C.3     1  UNL1        0.0953
      3 C          64.2206   91.6051   12.1934 C.3     1  UNL1        0.1106
      4 N          65.4106   92.3454   12.7280 N.pl3   1  UNL1       -0.3041
      5 C          66.1554   91.8105   13.9150 C.3     1  UNL1        0.1123
      6 C          65.7102   90.5354   14.5674 C.3     1  UNL1        0.1149
      7 N          64.5201   89.7951   14.0328 N.pl3   1  UNL1       -0.2777
      8 C          64.0749   88.5199   14.6853 C.ar    1  UNL1        0.2035
      9 N          64.1486   87.2258   13.9305 N.ar    1  UNL1       -0.2133
     10 C          63.7034   85.9506   14.5830 C.ar    1  UNL1        0.1065
     11 C          63.1845   85.9696   15.9903 C.ar    1  UNL1        0.0815
     12 C          63.1108   87.2637   16.7451 C.ar    1  UNL1        0.2646
     13 O          62.5919   87.2827   18.1523 O.2     1  UNL1       -0.2668
     14 N          63.5560   88.5389   16.0926 N.ar    1  UNL1       -0.2667
     15 C          63.4824   89.8331   16.8474 C.3     1  UNL1        0.1363
     16 C          63.7770   84.6565   13.8282 C.ar    1  UNL1        0.1024
     17 C          63.4997   84.6310   12.3543 C.ar    1  UNL1        0.0414
     18 C          63.5733   83.3368   11.5995 C.ar    1  UNL1        0.1023
     19 N          63.9243   82.0681   12.3186 N.ar    1  UNL1       -0.2224
     20 C          64.2017   82.0935   13.7925 C.ar    1  UNL1        0.1989
     21 N          64.1280   83.3877   14.5473 N.ar    1  UNL1       -0.2224
     22 C          65.8558   93.6206   12.0754 C.ar    1  UNL1        0.0486
     23 C          66.0760   94.8506   12.9053 C.ar    1  UNL1        0.0146
     24 C          66.5212   96.1258   12.2529 C.ar    1  UNL1        0.0020
     25 C          66.7463   96.1710   10.7705 C.ar    1  UNL1        0.0104
     26 C          66.5261   94.9410    9.9406 C.ar    1  UNL1        0.0697
     27 C          66.0809   93.6658   10.5931 C.ar    1  UNL1        0.0248
     28 C          66.7512   94.9862    8.4583 C.1     1  UNL1        0.1005
     29 N          66.9762   95.0314    6.9760 N.1     1  UNL1       -0.1908
@<TRIPOS>BOND
     1     2     1    1
     2     2     3    1
     3     3     4    1
     4     4    22    1
     5    22    23   ar
     6    23    24   ar
     7    24    25   ar
     8    25    26   ar
     9    26    28    1
    10    28    29    3
    11    26    27   ar
    12     4     5    1
    13     5     6    1
    14     6     7    1
    15     7     8    1
    16     8     9   ar
    17     9    10   ar
    18    10    16    1
    19    16    17   ar
    20    17    18   ar
    21    18    19   ar
    22    19    20   ar
    23    20    21   ar
    24    10    11   ar
    25    11    12   ar
    26    12    13    2
    27    12    14   ar
    28    14    15    1
    29     7     2    1
    30    14     8   ar
    31    27    22   ar
    32    21    16   ar
@<TRIPOS>MOLECULE
*****
 29 32 0 0 0
SMALL
GASTEIGER

@<TRIPOS>ATOM
      1 C          59.6050   88.7434   11.8823 C.3     1  UNL1        0.0233
      2 C          60.9878   89.2978   11.7074 C.3     1  UNL1        0.0953
      3 C          61.7486   89.8043   12.8967 C.3     1  UNL1        0.1106
      4 N          63.1314   90.3587   12.7219 N.pl3   1  UNL1       -0.3041
      5 C          63.7534   90.4065   11.3578 C.3     1  UNL1        0.1123
      6 C          62.9926   89.8999   10.1685 C.3     1  UNL1        0.1149
      7 N          61.6098   89.3456   10.3433 N.pl3   1  UNL1       -0.2777
      8 C          60.8489   88.8389    9.1539 C.ar    1  UNL1        0.2035
      9 N          60.2285   89.8084    8.1920 N.ar    1  UNL1       -0.2133
     10 C          59.4677   89.3019    7.0027 C.ar    1  UNL1        0.1065
     11 C          59.3273   87.8258    6.7752 C.ar    1  UNL1        0.0815
     12 C          59.9477   86.8564    7.7371 C.ar    1  UNL1        0.2646
     13 O          59.8073   85.3804    7.5097 O.2     1  UNL1       -0.2668
     14 N          60.7086   87.3630    8.9265 N.ar    1  UNL1       -0.2667
     15 C          61.3290   86.3935    9.8884 C.3     1  UNL1        0.1363
     16 C          58.8473   90.2713    6.0408 C.ar    1  UNL1        0.1024
     17 C          59.7198   91.1439    5.1880 C.ar    1  UNL1        0.0414
     18 C          59.0993   92.1133    4.2260 C.ar    1  UNL1        0.1023
     19 N          57.6065   92.2102    4.1169 N.ar    1  UNL1       -0.2224
     20 C          56.7339   91.3375    4.9698 C.ar    1  UNL1        0.1989
     21 N          57.3544   90.3681    5.9317 N.ar    1  UNL1       -0.2224
     22 C          63.8923   90.8653   13.9113 C.ar    1  UNL1        0.0486
     23 C          63.2652   90.8298   15.2735 C.ar    1  UNL1        0.0146
     24 C          64.0259   91.3363   16.4628 C.ar    1  UNL1        0.0020
     25 C          65.4138   91.8785   16.2900 C.ar    1  UNL1        0.0104
     26 C          66.0409   91.9141   14.9279 C.ar    1  UNL1        0.0697
     27 C          65.2801   91.4075   13.7385 C.ar    1  UNL1        0.0248
     28 C          67.4288   92.4563   14.7551 C.1     1  UNL1        0.1005
     29 N          68.8166   92.9984   14.5822 N.1     1  UNL1       -0.1908
@<TRIPOS>BOND
     1     2     1    1
     2     2     3    1
     3     3     4    1
     4     4    22    1
     5    22    23   ar
     6    23    24   ar
     7    24    25   ar
     8    25    26   ar
     9    26    28    1
    10    28    29    3
    11    26    27   ar
    12     4     5    1
    13     5     6    1
    14     6     7    1
    15     7     8    1
    16     8     9   ar
    17     9    10   ar
    18    10    16    1
    19    16    17   ar
    20    17    18   ar
    21    18    19   ar
    22    19    20   ar
    23    20    21   ar
    24    10    11   ar
    25    11    12   ar
    26    12    13    2
    27    12    14   ar
    28    14    15    1
    29     7     2    1
    30    14     8   ar
    31    27    22   ar
    32    21    16   ar
@<TRIPOS>MOLECULE
*****
 29 32 0 0 0
SMALL
GASTEIGER

@<TRIPOS>ATOM
      1 C          62.3789   88.9242   10.4179 C.3     1  UNL1        0.0233
      2 C          61.4745   88.3572    9.3641 C.3     1  UNL1        0.0953
      3 C          60.6740   89.2758    8.4893 C.3     1  UNL1        0.1106
      4 N          59.7696   88.7088    7.4355 N.pl3   1  UNL1       -0.3041
      5 C          59.6657   87.2232    7.2564 C.3     1  UNL1        0.1123
      6 C          60.4663   86.3046    8.1311 C.3     1  UNL1        0.1149
      7 N          61.3707   86.8716    9.1850 N.pl3   1  UNL1       -0.2777
      8 C          62.1712   85.9529   10.0597 C.ar    1  UNL1        0.2035
      9 N          62.2043   86.1700   11.5436 N.ar    1  UNL1       -0.2133
     10 C          63.0048   85.2513   12.4183 C.ar    1  UNL1        0.1065
     11 C          63.7723   84.1155   11.8092 C.ar    1  UNL1        0.0815
     12 C          63.7393   83.8984   10.3254 C.ar    1  UNL1        0.2646
     13 O          64.5068   82.7627    9.7163 O.2     1  UNL1       -0.2668
     14 N          62.9387   84.8171    9.4506 N.ar    1  UNL1       -0.2667
     15 C          62.9057   84.6000    7.9668 C.3     1  UNL1        0.1363
     16 C          63.0378   85.4684   13.9022 C.ar    1  UNL1        0.1024
     17 C          63.9737   86.4818   14.4912 C.ar    1  UNL1        0.0414
     18 C          64.0068   86.6989   15.9751 C.ar    1  UNL1        0.1023
     19 N          63.1039   85.9026   16.8698 N.ar    1  UNL1       -0.2224
     20 C          62.1679   84.8892   16.2808 C.ar    1  UNL1        0.1989
     21 N          62.1349   84.6721   14.7969 N.ar    1  UNL1       -0.2224
     22 C          58.9690   89.6276    6.5607 C.ar    1  UNL1        0.0486
     23 C          57.4711   89.5471    6.5609 C.ar    1  UNL1        0.0146
     24 C          56.6706   90.4657    5.6863 C.ar    1  UNL1        0.0020
     25 C          57.3678   91.4649    4.8113 C.ar    1  UNL1        0.0104
     26 C          58.8657   91.5454    4.8111 C.ar    1  UNL1        0.0697
     27 C          59.6662   90.6267    5.6859 C.ar    1  UNL1        0.0248
     28 C          59.5629   92.5445    3.9362 C.1     1  UNL1        0.1005
     29 N          60.2602   93.5437    3.0613 N.1     1  UNL1       -0.1908
@<TRIPOS>BOND
     1     2     1    1
     2     2     3    1
     3     3     4    1
     4     4    22    1
     5    22    23   ar
     6    23    24   ar
     7    24    25   ar
     8    25    26   ar
     9    26    28    1
    10    28    29    3
    11    26    27   ar
    12     4     5    1
    13     5     6    1
    14     6     7    1
    15     7     8    1
    16     8     9   ar
    17     9    10   ar
    18    10    16    1
    19    16    17   ar
    20    17    18   ar
    21    18    19   ar
    22    19    20   ar
    23    20    21   ar
    24    10    11   ar
    25    11    12   ar
    26    12    13    2
    27    12    14   ar
    28    14    15    1
    29     7     2    1
    30    14     8   ar
    31    27    22   ar
    32    21    16   ar
@<TRIPOS>MOLECULE
*****
 29 32 0 0 0
SMALL
GASTEIGER

@<TRIPOS>ATOM
      1 C          63.2948   89.0073   12.2444 C.3     1  UNL1        0.0233
      2 C          63.6056   87.8182   13.1043 C.3     1  UNL1        0.0953
      3 C          63.2973   86.4353   12.6118 C.3     1  UNL1        0.1106
      4 N          63.6081   85.2462   13.4717 N.pl3   1  UNL1       -0.3041
      5 C          64.2271   85.4399   14.8241 C.3     1  UNL1        0.1123
      6 C          64.5354   86.8228   15.3167 C.3     1  UNL1        0.1149
      7 N          64.2246   88.0119   14.4568 N.pl3   1  UNL1       -0.2777
      8 C          64.5330   89.3948   14.9494 C.ar    1  UNL1        0.2035
      9 N          65.8860   89.9941   14.7040 N.ar    1  UNL1       -0.2133
     10 C          66.1943   91.3769   15.1966 C.ar    1  UNL1        0.1065
     11 C          65.1496   92.1605   15.9346 C.ar    1  UNL1        0.0815
     12 C          63.7966   91.5612   16.1801 C.ar    1  UNL1        0.2646
     13 O          62.7519   92.3447   16.9181 O.2     1  UNL1       -0.2668
     14 N          63.4883   90.1783   15.6874 N.ar    1  UNL1       -0.2667
     15 C          62.1353   89.5790   15.9329 C.3     1  UNL1        0.1363
     16 C          67.5473   91.9762   14.9511 C.ar    1  UNL1        0.1024
     17 C          68.1476   92.9109   15.9591 C.ar    1  UNL1        0.0414
     18 C          69.5006   93.5102   15.7136 C.ar    1  UNL1        0.1023
     19 N          70.2533   93.1748   14.4603 N.ar    1  UNL1       -0.2224
     20 C          69.6530   92.2400   13.4523 C.ar    1  UNL1        0.1989
     21 N          68.3000   91.6407   13.6977 N.ar    1  UNL1       -0.2224
     22 C          63.2998   83.8633   12.9790 C.ar    1  UNL1        0.0486
     23 C          64.0546   83.2968   11.8131 C.ar    1  UNL1        0.0146
     24 C          63.7464   81.9140   11.3205 C.ar    1  UNL1        0.0020
     25 C          62.6832   81.0976   11.9937 C.ar    1  UNL1        0.0104
     26 C          61.9284   81.6640   13.1597 C.ar    1  UNL1        0.0697
     27 C          62.2367   83.0469   13.6523 C.ar    1  UNL1        0.0248
     28 C          60.8653   80.8477   13.8329 C.1     1  UNL1        0.1005
     29 N          59.8022   80.0313   14.5062 N.1     1  UNL1       -0.1908
@<TRIPOS>BOND
     1     2     1    1
     2     2     3    1
     3     3     4    1
     4     4    22    1
     5    22    23   ar
     6    23    24   ar
     7    24    25   ar
     8    25    26   ar
     9    26    28    1
    10    28    29    3
    11    26    27   ar
    12     4     5    1
    13     5     6    1
    14     6     7    1
    15     7     8    1
    16     8     9   ar
    17     9    10   ar
    18    10    16    1
    19    16    17   ar
    20    17    18   ar
    21    18    19   ar
    22    19    20   ar
    23    20    21   ar
    24    10    11   ar
    25    11    12   ar
    26    12    13    2
    27    12    14   ar
    28    14    15    1
    29     7     2    1
    30    14     8   ar
    31    27    22   ar
    32    21    16   ar
@<TRIPOS>MOLECULE
*****
 29 32 0 0 0
SMALL
GASTEIGER

@<TRIPOS>ATOM
      1 C          62.1251   86.6145    9.2945 C.3     1  UNL1        0.0233
      2 C          62.3080   86.0373   10.6668 C.3     1  UNL1        0.0953
      3 C          62.3849   84.5507   10.8511 C.3     1  UNL1        0.1106
      4 N          62.5678   83.9736   12.2235 N.pl3   1  UNL1       -0.3041
      5 C          62.6737   84.8830   13.4116 C.3     1  UNL1        0.1123
      6 C          62.5968   86.3697   13.2273 C.3     1  UNL1        0.1149
      7 N          62.4139   86.9468   11.8549 N.pl3   1  UNL1       -0.2777
      8 C          62.3369   88.4335   11.6707 C.ar    1  UNL1        0.2035
      9 N          63.5598   89.2785   11.8722 N.ar    1  UNL1       -0.2133
     10 C          63.4829   90.7651   11.6879 C.ar    1  UNL1        0.1065
     11 C          62.1831   91.4068   11.3022 C.ar    1  UNL1        0.0815
     12 C          60.9602   90.5619   11.1007 C.ar    1  UNL1        0.2646
     13 O          59.6604   91.2035   10.7150 O.2     1  UNL1       -0.2668
     14 N          61.0372   89.0751   11.2850 N.ar    1  UNL1       -0.2667
     15 C          59.8143   88.2302   11.0835 C.3     1  UNL1        0.1363
     16 C          64.7058   91.6101   11.8894 C.ar    1  UNL1        0.1024
     17 C          65.3031   92.3532   10.7315 C.ar    1  UNL1        0.0414
     18 C          66.5259   93.1982   10.9329 C.ar    1  UNL1        0.1023
     19 N          67.1515   93.3000   12.2924 N.ar    1  UNL1       -0.2224
     20 C          66.5542   92.5569   13.4505 C.ar    1  UNL1        0.1989
     21 N          65.3313   91.7119   13.2490 N.ar    1  UNL1       -0.2224
     22 C          62.6448   82.4869   12.4078 C.ar    1  UNL1        0.0486
     23 C          62.5092   81.8930   13.7786 C.ar    1  UNL1        0.0146
     24 C          62.5862   80.4064   13.9629 C.ar    1  UNL1        0.0020
     25 C          62.7987   79.5136   12.7764 C.ar    1  UNL1        0.0104
     26 C          62.9342   80.1074   11.4056 C.ar    1  UNL1        0.0697
     27 C          62.8572   81.5941   11.2213 C.ar    1  UNL1        0.0248
     28 C          63.1467   79.2146   10.2191 C.1     1  UNL1        0.1005
     29 N          63.3591   78.3218    9.0327 N.1     1  UNL1       -0.1908
@<TRIPOS>BOND
     1     2     1    1
     2     2     3    1
     3     3     4    1
     4     4    22    1
     5    22    23   ar
     6    23    24   ar
     7    24    25   ar
     8    25    26   ar
     9    26    28    1
    10    28    29    3
    11    26    27   ar
    12     4     5    1
    13     5     6    1
    14     6     7    1
    15     7     8    1
    16     8     9   ar
    17     9    10   ar
    18    10    16    1
    19    16    17   ar
    20    17    18   ar
    21    18    19   ar
    22    19    20   ar
    23    20    21   ar
    24    10    11   ar
    25    11    12   ar
    26    12    13    2
    27    12    14   ar
    28    14    15    1
    29     7     2    1
    30    14     8   ar
    31    27    22   ar
    32    21    16   ar
