@<TRIPOS>MOLECULE
*****
 37 40 0 0 0
SMALL
GASTEIGER

@<TRIPOS>ATOM
      1 C          63.1537   86.5133   12.6621 C.2     1  UNL1        0.2894
      2 O          63.6172   87.7714   13.3347 O.2     1  UNL1       -0.2688
      3 N          62.3004   86.5916   11.4310 N.am    1  UNL1       -0.1703
      4 N          61.7644   85.4258   10.6542 N.2     1  UNL1       -0.1783
      5 C          60.9659   85.9631    9.5036 C.2     1  UNL1        0.0938
      6 C          61.0085   87.4611    9.5694 C.3     1  UNL1        0.0799
      7 C          61.8332   87.8495   10.7606 C.3     1  UNL1        0.1809
      8 C          62.1374   89.2499   11.2036 C.2     1  UNL1        0.2432
      9 O          61.0717   90.0774   11.8589 O.2     1  UNL1       -0.2732
     10 N          63.5074   89.8228   10.9913 N.am    1  UNL1       -0.2990
     11 H          64.2069   89.2797   10.5612 H       1  UNL1        0.1498
     12 C          63.8116   91.2232   11.4343 C.3     1  UNL1        0.1179
     13 C          64.3755   91.4714   12.8020 C.ar    1  UNL1        0.0161
     14 C          63.7127   90.8722   14.0067 C.ar    1  UNL1        0.0103
     15 C          64.2767   91.1204   15.3742 C.ar    1  UNL1        0.0575
     16 CL         63.6138   90.5211   16.5791 Cl      1  UNL1       -0.0823
     17 C          65.5035   91.9679   15.5371 C.ar    1  UNL1        0.0129
     18 C          66.1664   92.5672   14.3323 C.ar    1  UNL1        0.0199
     19 C          65.6024   92.3190   12.9648 C.ar    1  UNL1        0.0839
     20 N          66.2653   92.9183   11.7600 N.ar    1  UNL1       -0.1889
     21 C          65.7954   94.1258   11.0044 C.ar    1  UNL1        0.2258
     22 N          66.7541   94.3691    9.8767 N.ar    1  UNL1       -0.1045
     23 N          67.8166   93.3118    9.9353 N.ar    1  UNL1       -0.0222
     24 N          67.5145   92.4152   11.0993 N.ar    1  UNL1       -0.0385
     25 C          63.5435   85.1768   13.2208 C.3     1  UNL1        0.2681
     26 C          63.4687   83.9524   12.3576 C.ar    1  UNL1        0.0265
     27 C          62.5470   82.8286   12.7285 C.ar    1  UNL1        0.0020
     28 C          62.4721   81.6041   11.8654 C.ar    1  UNL1        0.0294
     29 C          63.3190   81.5034   10.6314 C.ar    1  UNL1        0.1401
     30 F          63.2442   80.2789    9.7683 F       1  UNL1       -0.2042
     31 C          64.2407   82.6272   10.2606 C.ar    1  UNL1        0.0294
     32 C          64.3156   83.8517   11.1237 C.ar    1  UNL1        0.0020
     33 O          64.0082   85.0650   14.6426 O.3     1  UNL1       -0.4381
     34 C          63.0351   85.2609   15.7672 C.2     1  UNL1        0.3176
     35 O          61.6221   84.7771   15.6291 O.2     1  UNL1       -0.2501
     36 C          62.6921   87.1007   17.5693 C.3     1  UNL1        0.0122
     37 C          63.4752   85.9406   17.0299 C.3     1  UNL1        0.1096
@<TRIPOS>BOND
     1    36    37    1
     2    37    34    1
     3    34    35    2
     4    34    33    1
     5    25    33    1
     6    25     1    1
     7     1     2    2
     8     1     3   am
     9     3     4    1
    10     4     5    2
    11     5     6    1
    12     6     7    1
    13     7     8    1
    14     8     9    2
    15     8    10   am
    16    10    12    1
    17    12    13    1
    18    13    14   ar
    19    14    15   ar
    20    15    16    1
    21    15    17   ar
    22    17    18   ar
    23    18    19   ar
    24    19    20    1
    25    20    21   ar
    26    21    22   ar
    27    22    23   ar
    28    23    24   ar
    29    25    26    1
    30    26    27   ar
    31    27    28   ar
    32    28    29   ar
    33    29    30    1
    34    29    31   ar
    35    31    32   ar
    36     7     3    1
    37    19    13   ar
    38    24    20   ar
    39    32    26   ar
    40    10    11    1
@<TRIPOS>MOLECULE
*****
 37 40 0 0 0
SMALL
GASTEIGER

@<TRIPOS>ATOM
      1 C          62.2406   88.5116   10.5173 C.2     1  UNL1        0.2894
      2 O          63.3384   87.8161   11.2664 O.2     1  UNL1       -0.2688
      3 N          61.3851   87.7424    9.5549 N.am    1  UNL1       -0.1703
      4 N          60.2563   88.2993    8.7390 N.2     1  UNL1       -0.1783
      5 C          59.6817   87.1823    7.9192 C.2     1  UNL1        0.0938
      6 C          60.4554   85.9350    8.2284 C.3     1  UNL1        0.0799
      7 C          61.5081   86.2811    9.2394 C.3     1  UNL1        0.1809
      8 C          62.5083   85.3326    9.8309 C.2     1  UNL1        0.2432
      9 O          63.4334   84.5634    8.9351 O.2     1  UNL1       -0.2732
     10 N          62.5833   85.1532   11.3183 N.am    1  UNL1       -0.2990
     11 H          61.9761   85.6580   11.9062 H       1  UNL1        0.1498
     12 C          63.5834   84.2046   11.9098 C.3     1  UNL1        0.1179
     13 C          63.1465   82.8461   12.3718 C.ar    1  UNL1        0.0161
     14 C          63.1020   81.7025   11.4022 C.ar    1  UNL1        0.0103
     15 C          62.6652   80.3440   11.8643 C.ar    1  UNL1        0.0575
     16 CL         62.6206   79.2003   10.8947 Cl      1  UNL1       -0.0823
     17 C          62.2728   80.1291   13.2960 C.ar    1  UNL1        0.0129
     18 C          62.3172   81.2726   14.2657 C.ar    1  UNL1        0.0199
     19 C          62.7541   82.6311   13.8036 C.ar    1  UNL1        0.0839
     20 N          62.7986   83.7748   14.7732 N.ar    1  UNL1       -0.1889
     21 C          64.0363   84.3814   15.3649 C.ar    1  UNL1        0.2258
     22 N          63.6159   85.4941   16.2788 N.ar    1  UNL1       -0.1045
     23 N          62.1183   85.5752   16.2518 N.ar    1  UNL1       -0.0222
     24 N          61.6132   84.5126   15.3214 N.ar    1  UNL1       -0.0385
     25 C          61.9984   89.9765   10.7308 C.3     1  UNL1        0.2681
     26 C          63.1075   90.8554   11.2281 C.ar    1  UNL1        0.0265
     27 C          63.8315   91.7605   10.2759 C.ar    1  UNL1        0.0020
     28 C          64.9406   92.6394   10.7732 C.ar    1  UNL1        0.0294
     29 C          65.3258   92.6133   12.2226 C.ar    1  UNL1        0.1401
     30 F          66.4349   93.4921   12.7199 F       1  UNL1       -0.2042
     31 C          64.6019   91.7082   13.1748 C.ar    1  UNL1        0.0294
     32 C          63.4927   90.8292   12.6776 C.ar    1  UNL1        0.0020
     33 O          60.6471   90.5624   10.4469 O.3     1  UNL1       -0.4381
     34 C          59.5595   90.4729   11.4761 C.2     1  UNL1        0.3176
     35 O          58.5405   91.5679   11.5875 O.2     1  UNL1       -0.2501
     36 C          58.1800   88.8844   13.0005 C.3     1  UNL1        0.0122
     37 C          59.4911   89.2884   12.3939 C.3     1  UNL1        0.1096
@<TRIPOS>BOND
     1    36    37    1
     2    37    34    1
     3    34    35    2
     4    34    33    1
     5    25    33    1
     6    25     1    1
     7     1     2    2
     8     1     3   am
     9     3     4    1
    10     4     5    2
    11     5     6    1
    12     6     7    1
    13     7     8    1
    14     8     9    2
    15     8    10   am
    16    10    12    1
    17    12    13    1
    18    13    14   ar
    19    14    15   ar
    20    15    16    1
    21    15    17   ar
    22    17    18   ar
    23    18    19   ar
    24    19    20    1
    25    20    21   ar
    26    21    22   ar
    27    22    23   ar
    28    23    24   ar
    29    25    26    1
    30    26    27   ar
    31    27    28   ar
    32    28    29   ar
    33    29    30    1
    34    29    31   ar
    35    31    32   ar
    36     7     3    1
    37    19    13   ar
    38    24    20   ar
    39    32    26   ar
    40    10    11    1
@<TRIPOS>MOLECULE
*****
 37 40 0 0 0
SMALL
GASTEIGER

@<TRIPOS>ATOM
      1 C          61.9082   88.7567   10.3996 C.2     1  UNL1        0.2894
      2 O          62.8330   87.9143   11.2274 O.2     1  UNL1       -0.2688
      3 N          61.0857   88.1245    9.3162 N.am    1  UNL1       -0.1703
      4 N          60.1225   88.8351    8.4122 N.2     1  UNL1       -0.1783
      5 C          59.5234   87.8205    7.4838 C.2     1  UNL1        0.0938
      6 C          60.1164   86.4829    7.8142 C.3     1  UNL1        0.0799
      7 C          61.0819   86.6707    8.9467 C.3     1  UNL1        0.1809
      8 C          61.9000   85.5939    9.5956 C.2     1  UNL1        0.2432
      9 O          62.9528   84.8735    8.8066 O.2     1  UNL1       -0.2732
     10 N          61.6653   85.2375   11.0337 N.am    1  UNL1       -0.2990
     11 H          60.9743   85.7104   11.5516 H       1  UNL1        0.1498
     12 C          62.4833   84.1608   11.6827 C.3     1  UNL1        0.1179
     13 C          63.1394   84.4130   13.0079 C.ar    1  UNL1        0.0161
     14 C          63.6509   85.7827   13.3428 C.ar    1  UNL1        0.0103
     15 C          64.3069   86.0350   14.6679 C.ar    1  UNL1        0.0575
     16 CL         64.8185   87.4047   15.0030 Cl      1  UNL1       -0.0823
     17 C          64.4514   84.9175   15.6581 C.ar    1  UNL1        0.0129
     18 C          63.9399   83.5478   15.3232 C.ar    1  UNL1        0.0199
     19 C          63.2839   83.2956   13.9980 C.ar    1  UNL1        0.0839
     20 N          62.7723   81.9258   13.6630 N.ar    1  UNL1       -0.1889
     21 C          61.5467   81.2779   14.2358 C.ar    1  UNL1        0.2258
     22 N          61.4135   79.9152   13.6232 N.ar    1  UNL1       -0.1045
     23 N          62.5568   79.7210   12.6717 N.ar    1  UNL1       -0.0222
     24 N          63.3965   80.9636   12.6963 N.ar    1  UNL1       -0.0385
     25 C          61.8060   90.2312   10.6553 C.3     1  UNL1        0.2681
     26 C          63.0128   90.9997   11.1059 C.ar    1  UNL1        0.0265
     27 C          63.4553   90.9292   12.5374 C.ar    1  UNL1        0.0020
     28 C          64.6621   91.6976   12.9882 C.ar    1  UNL1        0.0294
     29 C          65.4264   92.5365   12.0073 C.ar    1  UNL1        0.1401
     30 F          66.6332   93.3049   12.4580 F       1  UNL1       -0.2042
     31 C          64.9839   92.6070   10.5758 C.ar    1  UNL1        0.0294
     32 C          63.7771   91.8386   10.1251 C.ar    1  UNL1        0.0020
     33 O          60.4970   90.9372   10.4603 O.3     1  UNL1       -0.4381
     34 C          59.4258   90.8331   11.5052 C.2     1  UNL1        0.3176
     35 O          58.3252   91.8510   11.5548 O.2     1  UNL1       -0.2501
     36 C          58.2443   88.8468   12.6921 C.3     1  UNL1        0.0122
     37 C          59.4552   89.7111   12.5003 C.3     1  UNL1        0.1096
@<TRIPOS>BOND
     1    36    37    1
     2    37    34    1
     3    34    35    2
     4    34    33    1
     5    25    33    1
     6    25     1    1
     7     1     2    2
     8     1     3   am
     9     3     4    1
    10     4     5    2
    11     5     6    1
    12     6     7    1
    13     7     8    1
    14     8     9    2
    15     8    10   am
    16    10    12    1
    17    12    13    1
    18    13    14   ar
    19    14    15   ar
    20    15    16    1
    21    15    17   ar
    22    17    18   ar
    23    18    19   ar
    24    19    20    1
    25    20    21   ar
    26    21    22   ar
    27    22    23   ar
    28    23    24   ar
    29    25    26    1
    30    26    27   ar
    31    27    28   ar
    32    28    29   ar
    33    29    30    1
    34    29    31   ar
    35    31    32   ar
    36     7     3    1
    37    19    13   ar
    38    24    20   ar
    39    32    26   ar
    40    10    11    1
@<TRIPOS>MOLECULE
*****
 37 40 0 0 0
SMALL
GASTEIGER

@<TRIPOS>ATOM
      1 C          62.2632   87.1089   11.1338 C.2     1  UNL1        0.2894
      2 O          63.0184   88.0725   12.0004 O.2     1  UNL1       -0.2688
      3 N          61.3567   87.6224   10.0546 N.am    1  UNL1       -0.1703
      4 N          60.5418   86.7841    9.1148 N.2     1  UNL1       -0.1783
      5 C          59.7874   87.7080    8.2051 C.2     1  UNL1        0.0938
      6 C          60.1362   89.1171    8.5827 C.3     1  UNL1        0.0799
      7 C          61.1060   89.0643    9.7258 C.3     1  UNL1        0.1809
      8 C          61.7178   90.2458   10.4184 C.2     1  UNL1        0.2432
      9 O          60.8638   91.1462   11.2610 O.2     1  UNL1       -0.2732
     10 N          63.1836   90.5269   10.2684 N.am    1  UNL1       -0.2990
     11 H          63.7441   89.9359    9.7154 H       1  UNL1        0.1498
     12 C          63.7953   91.7084   10.9610 C.3     1  UNL1        0.1179
     13 C          64.3468   91.5619   12.3483 C.ar    1  UNL1        0.0161
     14 C          63.6149   90.7341   13.3628 C.ar    1  UNL1        0.0103
     15 C          64.1664   90.5876   14.7500 C.ar    1  UNL1        0.0575
     16 CL         63.4345   89.7598   15.7645 Cl      1  UNL1       -0.0823
     17 C          65.4497   91.2688   15.1227 C.ar    1  UNL1        0.0129
     18 C          66.1816   92.0966   14.1083 C.ar    1  UNL1        0.0199
     19 C          65.6301   92.2431   12.7211 C.ar    1  UNL1        0.0839
     20 N          66.3620   93.0710   11.7066 N.ar    1  UNL1       -0.1889
     21 C          66.1819   94.5417   11.4730 C.ar    1  UNL1        0.2258
     22 N          67.1110   94.9530   10.3696 N.ar    1  UNL1       -0.1045
     23 N          67.8654   93.7365    9.9212 N.ar    1  UNL1       -0.0222
     24 N          67.4025   92.5733   10.7475 N.ar    1  UNL1       -0.0385
     25 C          62.4145   85.6317   11.3465 C.3     1  UNL1        0.2681
     26 C          62.8827   85.1089   12.6721 C.ar    1  UNL1        0.0265
     27 C          62.4126   83.7702   13.1587 C.ar    1  UNL1        0.0020
     28 C          62.8808   83.2473   14.4844 C.ar    1  UNL1        0.0294
     29 C          63.8190   84.0631   15.3234 C.ar    1  UNL1        0.1401
     30 F          64.2873   83.5403   16.6491 F       1  UNL1       -0.2042
     31 C          64.2891   85.4019   14.8368 C.ar    1  UNL1        0.0294
     32 C          63.8210   85.9248   13.5112 C.ar    1  UNL1        0.0020
     33 O          62.0975   84.6775   10.2334 O.3     1  UNL1       -0.4381
     34 C          63.1672   84.2778    9.2608 C.2     1  UNL1        0.3176
     35 O          63.1475   84.8167    7.8611 O.2     1  UNL1       -0.2501
     36 C          63.9199   82.1104   10.4798 C.3     1  UNL1        0.0122
     37 C          64.2564   83.3391    9.6878 C.3     1  UNL1        0.1096
@<TRIPOS>BOND
     1    36    37    1
     2    37    34    1
     3    34    35    2
     4    34    33    1
     5    25    33    1
     6    25     1    1
     7     1     2    2
     8     1     3   am
     9     3     4    1
    10     4     5    2
    11     5     6    1
    12     6     7    1
    13     7     8    1
    14     8     9    2
    15     8    10   am
    16    10    12    1
    17    12    13    1
    18    13    14   ar
    19    14    15   ar
    20    15    16    1
    21    15    17   ar
    22    17    18   ar
    23    18    19   ar
    24    19    20    1
    25    20    21   ar
    26    21    22   ar
    27    22    23   ar
    28    23    24   ar
    29    25    26    1
    30    26    27   ar
    31    27    28   ar
    32    28    29   ar
    33    29    30    1
    34    29    31   ar
    35    31    32   ar
    36     7     3    1
    37    19    13   ar
    38    24    20   ar
    39    32    26   ar
    40    10    11    1
@<TRIPOS>MOLECULE
*****
 37 40 0 0 0
SMALL
GASTEIGER

@<TRIPOS>ATOM
      1 C          62.9786   88.5469   12.4982 C.2     1  UNL1        0.2894
      2 O          64.0734   87.5223   12.5357 O.2     1  UNL1       -0.2688
      3 N          61.7497   88.3016   11.6739 N.am    1  UNL1       -0.1703
      4 N          60.5786   89.2292   11.5393 N.2     1  UNL1       -0.1783
      5 C          59.5812   88.5865   10.6216 C.2     1  UNL1        0.0938
      6 C          60.1359   87.2617   10.1890 C.3     1  UNL1        0.0799
      7 C          61.4761   87.0856   10.8393 C.3     1  UNL1        0.1809
      8 C          62.3833   85.9015   10.6826 C.2     1  UNL1        0.2432
      9 O          62.8737   85.5073    9.3209 O.2     1  UNL1       -0.2732
     10 N          62.8003   85.1114   11.8876 N.am    1  UNL1       -0.2990
     11 H          62.4784   85.3701   12.7813 H       1  UNL1        0.1498
     12 C          63.7076   83.9272   11.7309 C.3     1  UNL1        0.1179
     13 C          63.2355   82.5620   12.1351 C.ar    1  UNL1        0.0161
     14 C          63.1816   81.4567   11.1225 C.ar    1  UNL1        0.0103
     15 C          62.7096   80.0916   11.5267 C.ar    1  UNL1        0.0575
     16 CL         62.6557   78.9862   10.5141 Cl      1  UNL1       -0.0823
     17 C          62.2914   79.8317   12.9436 C.ar    1  UNL1        0.0129
     18 C          62.3453   80.9369   13.9563 C.ar    1  UNL1        0.0199
     19 C          62.8173   82.3021   13.5520 C.ar    1  UNL1        0.0839
     20 N          62.8712   83.4074   14.5647 N.ar    1  UNL1       -0.1889
     21 C          64.0816   83.8333   15.3415 C.ar    1  UNL1        0.2258
     22 N          63.6826   84.9700   16.2352 N.ar    1  UNL1       -0.1045
     23 N          62.2255   85.2466   16.0107 N.ar    1  UNL1       -0.0222
     24 N          61.7240   84.2809   14.9783 N.ar    1  UNL1       -0.0385
     25 C          63.1127   89.8169   13.2851 C.3     1  UNL1        0.2681
     26 C          64.0173   90.9095   12.7973 C.ar    1  UNL1        0.0265
     27 C          65.0094   91.5352   13.7322 C.ar    1  UNL1        0.0020
     28 C          65.9140   92.6278   13.2445 C.ar    1  UNL1        0.0294
     29 C          65.8264   93.0947   11.8217 C.ar    1  UNL1        0.1401
     30 F          66.7310   94.1872   11.3338 F       1  UNL1       -0.2042
     31 C          64.8343   92.4690   10.8867 C.ar    1  UNL1        0.0294
     32 C          63.9297   91.3764   11.3745 C.ar    1  UNL1        0.0020
     33 O          62.3423   89.9942   14.5599 O.3     1  UNL1       -0.4381
     34 C          63.0396   89.8654   15.8817 C.2     1  UNL1        0.3176
     35 O          63.2919   91.0844   16.7184 O.2     1  UNL1       -0.2501
     36 C          62.9238   87.9559   17.6397 C.3     1  UNL1        0.0122
     37 C          63.4844   88.5175   16.3668 C.3     1  UNL1        0.1096
@<TRIPOS>BOND
     1    36    37    1
     2    37    34    1
     3    34    35    2
     4    34    33    1
     5    25    33    1
     6    25     1    1
     7     1     2    2
     8     1     3   am
     9     3     4    1
    10     4     5    2
    11     5     6    1
    12     6     7    1
    13     7     8    1
    14     8     9    2
    15     8    10   am
    16    10    12    1
    17    12    13    1
    18    13    14   ar
    19    14    15   ar
    20    15    16    1
    21    15    17   ar
    22    17    18   ar
    23    18    19   ar
    24    19    20    1
    25    20    21   ar
    26    21    22   ar
    27    22    23   ar
    28    23    24   ar
    29    25    26    1
    30    26    27   ar
    31    27    28   ar
    32    28    29   ar
    33    29    30    1
    34    29    31   ar
    35    31    32   ar
    36     7     3    1
    37    19    13   ar
    38    24    20   ar
    39    32    26   ar
    40    10    11    1
@<TRIPOS>MOLECULE
*****
 37 40 0 0 0
SMALL
GASTEIGER

@<TRIPOS>ATOM
      1 C          65.1527   91.4895   13.2667 C.2     1  UNL1        0.2894
      2 O          65.3204   90.5153   14.3949 O.2     1  UNL1       -0.2688
      3 N          64.2114   91.1786   12.1410 N.am    1  UNL1       -0.1703
      4 N          63.9411   92.0511   10.9513 N.2     1  UNL1       -0.1783
      5 C          62.9377   91.3524   10.0823 C.2     1  UNL1        0.0938
      6 C          62.5878   90.0480   10.7351 C.3     1  UNL1        0.0799
      7 C          63.3750   89.9406   12.0075 C.3     1  UNL1        0.1809
      8 C          63.3332   88.7961   12.9762 C.2     1  UNL1        0.2432
      9 O          63.1561   89.0604   14.4421 O.2     1  UNL1       -0.2732
     10 N          63.4685   87.3873   12.4790 N.am    1  UNL1       -0.2990
     11 H          63.5847   87.2139   11.5169 H       1  UNL1        0.1498
     12 C          63.4266   86.2429   13.4477 C.3     1  UNL1        0.1179
     13 C          63.3273   84.8345   12.9409 C.ar    1  UNL1        0.0161
     14 C          63.9694   83.7152   13.7057 C.ar    1  UNL1        0.0103
     15 C          63.8700   82.3070   13.1989 C.ar    1  UNL1        0.0575
     16 CL         64.5121   81.1876   13.9636 Cl      1  UNL1       -0.0823
     17 C          63.1287   82.0180   11.9273 C.ar    1  UNL1        0.0129
     18 C          62.4866   83.1373   11.1626 C.ar    1  UNL1        0.0199
     19 C          62.5859   84.5456   11.6694 C.ar    1  UNL1        0.0839
     20 N          61.9439   85.6650   10.9046 N.ar    1  UNL1       -0.1889
     21 C          62.2472   86.0524    9.4876 C.ar    1  UNL1        0.2258
     22 N          61.3765   87.2203    9.1299 N.ar    1  UNL1       -0.1045
     23 N          60.5351   87.5547   10.3258 N.ar    1  UNL1       -0.0222
     24 N          60.8857   86.5934   11.4226 N.ar    1  UNL1       -0.0385
     25 C          65.9264   92.7746   13.2643 C.3     1  UNL1        0.2681
     26 C          66.4944   93.3056   11.9816 C.ar    1  UNL1        0.0265
     27 C          66.2457   94.7306   11.5845 C.ar    1  UNL1        0.0020
     28 C          66.8137   95.2617   10.3018 C.ar    1  UNL1        0.0294
     29 C          67.6303   94.3679    9.4162 C.ar    1  UNL1        0.1401
     30 F          68.1983   94.8989    8.1335 F       1  UNL1       -0.2042
     31 C          67.8790   92.9430    9.8133 C.ar    1  UNL1        0.0294
     32 C          67.3110   92.4118   11.0960 C.ar    1  UNL1        0.0020
     33 O          66.1321   93.5285   14.5446 O.3     1  UNL1       -0.4381
     34 C          66.5189   92.7938   15.7938 C.2     1  UNL1        0.3176
     35 O          65.5192   92.6128   16.8973 O.2     1  UNL1       -0.2501
     36 C          69.0591   92.9193   15.2628 C.3     1  UNL1        0.0122
     37 C          67.9054   92.2402   15.9395 C.3     1  UNL1        0.1096
@<TRIPOS>BOND
     1    36    37    1
     2    37    34    1
     3    34    35    2
     4    34    33    1
     5    25    33    1
     6    25     1    1
     7     1     2    2
     8     1     3   am
     9     3     4    1
    10     4     5    2
    11     5     6    1
    12     6     7    1
    13     7     8    1
    14     8     9    2
    15     8    10   am
    16    10    12    1
    17    12    13    1
    18    13    14   ar
    19    14    15   ar
    20    15    16    1
    21    15    17   ar
    22    17    18   ar
    23    18    19   ar
    24    19    20    1
    25    20    21   ar
    26    21    22   ar
    27    22    23   ar
    28    23    24   ar
    29    25    26    1
    30    26    27   ar
    31    27    28   ar
    32    28    29   ar
    33    29    30    1
    34    29    31   ar
    35    31    32   ar
    36     7     3    1
    37    19    13   ar
    38    24    20   ar
    39    32    26   ar
    40    10    11    1
@<TRIPOS>MOLECULE
*****
 37 40 0 0 0
SMALL
GASTEIGER

@<TRIPOS>ATOM
      1 C          61.9329   87.5672   10.4705 C.2     1  UNL1        0.2894
      2 O          63.2903   88.1105   10.1355 O.2     1  UNL1       -0.2688
      3 N          60.8964   88.4630   11.0814 N.am    1  UNL1       -0.1703
      4 N          59.5032   88.0636   11.4681 N.2     1  UNL1       -0.1783
      5 C          58.8169   89.2692   12.0387 C.2     1  UNL1        0.0938
      6 C          59.7859   90.4136   12.0046 C.3     1  UNL1        0.0799
      7 C          61.0711   89.9154   11.4130 C.3     1  UNL1        0.1809
      8 C          62.3130   90.7270   11.1918 C.2     1  UNL1        0.2432
      9 O          62.5841   91.3315    9.8460 O.2     1  UNL1       -0.2732
     10 N          63.2838   90.9343   12.3164 N.am    1  UNL1       -0.2990
     11 H          63.1058   90.5375   13.1997 H       1  UNL1        0.1498
     12 C          64.5256   91.7459   12.0952 C.3     1  UNL1        0.1179
     13 C          65.3627   92.1702   13.2654 C.ar    1  UNL1        0.0161
     14 C          64.8517   91.9770   14.6624 C.ar    1  UNL1        0.0103
     15 C          65.6887   92.4013   15.8325 C.ar    1  UNL1        0.0575
     16 CL         65.1777   92.2080   17.2296 Cl      1  UNL1       -0.0823
     17 C          67.0367   93.0188   15.6057 C.ar    1  UNL1        0.0129
     18 C          67.5477   93.2121   14.2088 C.ar    1  UNL1        0.0199
     19 C          66.7107   92.7878   13.0386 C.ar    1  UNL1        0.0839
     20 N          67.2217   92.9810   11.6416 N.ar    1  UNL1       -0.1889
     21 C          66.7314   94.0005   10.6566 C.ar    1  UNL1        0.2258
     22 N          67.5194   93.8382    9.3906 N.ar    1  UNL1       -0.1045
     23 N          68.4967   92.7184    9.5932 N.ar    1  UNL1       -0.0222
     24 N          68.3127   92.1886   10.9844 N.ar    1  UNL1       -0.0385
     25 C          61.6120   86.1281   10.1944 C.3     1  UNL1        0.2681
     26 C          62.4676   85.0435   10.7787 C.ar    1  UNL1        0.0265
     27 C          63.3125   84.1892    9.8807 C.ar    1  UNL1        0.0020
     28 C          64.1682   83.1045   10.4648 C.ar    1  UNL1        0.0294
     29 C          64.1791   82.8742   11.9470 C.ar    1  UNL1        0.1401
     30 F          65.0347   81.7896   12.5312 F       1  UNL1       -0.2042
     31 C          63.3342   83.7285   12.8450 C.ar    1  UNL1        0.0294
     32 C          62.4785   84.8132   12.2608 C.ar    1  UNL1        0.0020
     33 O          60.4354   85.7738    9.3342 O.3     1  UNL1       -0.4381
     34 C          60.5483   85.8506    7.8404 C.2     1  UNL1        0.3176
     35 O          59.4525   86.4863    7.0372 O.2     1  UNL1       -0.2501
     36 C          61.5920   84.3739    5.9749 C.3     1  UNL1        0.0122
     37 C          61.7569   85.2917    7.1499 C.3     1  UNL1        0.1096
@<TRIPOS>BOND
     1    36    37    1
     2    37    34    1
     3    34    35    2
     4    34    33    1
     5    25    33    1
     6    25     1    1
     7     1     2    2
     8     1     3   am
     9     3     4    1
    10     4     5    2
    11     5     6    1
    12     6     7    1
    13     7     8    1
    14     8     9    2
    15     8    10   am
    16    10    12    1
    17    12    13    1
    18    13    14   ar
    19    14    15   ar
    20    15    16    1
    21    15    17   ar
    22    17    18   ar
    23    18    19   ar
    24    19    20    1
    25    20    21   ar
    26    21    22   ar
    27    22    23   ar
    28    23    24   ar
    29    25    26    1
    30    26    27   ar
    31    27    28   ar
    32    28    29   ar
    33    29    30    1
    34    29    31   ar
    35    31    32   ar
    36     7     3    1
    37    19    13   ar
    38    24    20   ar
    39    32    26   ar
    40    10    11    1
@<TRIPOS>MOLECULE
*****
 37 40 0 0 0
SMALL
GASTEIGER

@<TRIPOS>ATOM
      1 C          63.6533   90.5056   13.8092 C.2     1  UNL1        0.2894
      2 O          62.7165   89.3361   13.7412 O.2     1  UNL1       -0.2688
      3 N          63.9854   91.2739   12.5644 N.am    1  UNL1       -0.1703
      4 N          64.9007   92.4591   12.4778 N.2     1  UNL1       -0.1783
      5 C          64.9416   92.9096   11.0475 C.2     1  UNL1        0.0938
      6 C          64.0515   92.0028   10.2504 C.3     1  UNL1        0.0799
      7 C          63.4606   90.9919   11.1879 C.3     1  UNL1        0.1809
      8 C          62.5115   89.8921   10.8144 C.2     1  UNL1        0.2432
      9 O          61.3356   90.1842    9.9300 O.2     1  UNL1       -0.2732
     10 N          62.7382   88.5000   11.3252 N.am    1  UNL1       -0.2990
     11 H          63.5099   88.3082   11.9056 H       1  UNL1        0.1498
     12 C          61.7890   87.4002   10.9517 C.3     1  UNL1        0.1179
     13 C          62.2980   86.1769   10.2484 C.ar    1  UNL1        0.0161
     14 C          62.2109   86.0801    8.7541 C.ar    1  UNL1        0.0103
     15 C          62.7198   84.8568    8.0509 C.ar    1  UNL1        0.0575
     16 CL         62.6328   84.7599    6.5565 Cl      1  UNL1       -0.0823
     17 C          63.3159   83.7303    8.8420 C.ar    1  UNL1        0.0129
     18 C          63.4030   83.8272   10.3363 C.ar    1  UNL1        0.0199
     19 C          62.8940   85.0504   11.0395 C.ar    1  UNL1        0.0839
     20 N          62.9811   85.1473   12.5339 N.ar    1  UNL1       -0.1889
     21 C          62.3605   84.1991   13.5166 C.ar    1  UNL1        0.2258
     22 N          62.6999   84.6752   14.8979 N.ar    1  UNL1       -0.1045
     23 N          63.5304   85.9177   14.7690 N.ar    1  UNL1       -0.0222
     24 N          63.7041   86.2094   13.3080 N.ar    1  UNL1       -0.0385
     25 C          64.2581   90.9067   15.1220 C.3     1  UNL1        0.2681
     26 C          65.6179   91.5387   15.1595 C.ar    1  UNL1        0.0265
     27 C          65.8958   92.6642   16.1113 C.ar    1  UNL1        0.0020
     28 C          67.2556   93.2963   16.1488 C.ar    1  UNL1        0.0294
     29 C          68.3375   92.8028   15.2345 C.ar    1  UNL1        0.1401
     30 F          69.6973   93.4347   15.2720 F       1  UNL1       -0.2042
     31 C          68.0596   91.6772   14.2827 C.ar    1  UNL1        0.0294
     32 C          66.6998   91.0452   14.2452 C.ar    1  UNL1        0.0020
     33 O          63.5029   90.6758   16.3973 O.3     1  UNL1       -0.4381
     34 C          62.7118   89.4149   16.5827 C.2     1  UNL1        0.3176
     35 O          61.2542   89.3855   16.2302 O.2     1  UNL1       -0.2501
     36 C          62.5765   87.1662   17.8769 C.3     1  UNL1        0.0122
     37 C          63.3784   88.1835   17.1206 C.3     1  UNL1        0.1096
@<TRIPOS>BOND
     1    36    37    1
     2    37    34    1
     3    34    35    2
     4    34    33    1
     5    25    33    1
     6    25     1    1
     7     1     2    2
     8     1     3   am
     9     3     4    1
    10     4     5    2
    11     5     6    1
    12     6     7    1
    13     7     8    1
    14     8     9    2
    15     8    10   am
    16    10    12    1
    17    12    13    1
    18    13    14   ar
    19    14    15   ar
    20    15    16    1
    21    15    17   ar
    22    17    18   ar
    23    18    19   ar
    24    19    20    1
    25    20    21   ar
    26    21    22   ar
    27    22    23   ar
    28    23    24   ar
    29    25    26    1
    30    26    27   ar
    31    27    28   ar
    32    28    29   ar
    33    29    30    1
    34    29    31   ar
    35    31    32   ar
    36     7     3    1
    37    19    13   ar
    38    24    20   ar
    39    32    26   ar
    40    10    11    1
@<TRIPOS>MOLECULE
*****
 37 40 0 0 0
SMALL
GASTEIGER

@<TRIPOS>ATOM
      1 C          64.5017   90.4381   12.9736 C.2     1  UNL1        0.2894
      2 O          64.0894   89.2919   13.8489 O.2     1  UNL1       -0.2688
      3 N          63.7677   90.7057   11.6932 N.am    1  UNL1       -0.1703
      4 N          64.0642   91.8088   10.7209 N.2     1  UNL1       -0.1783
      5 C          63.0880   91.7021    9.5870 C.2     1  UNL1        0.0938
      6 C          62.1882   90.5332    9.8585 C.3     1  UNL1        0.0799
      7 C          62.6082   89.9173   11.1602 C.3     1  UNL1        0.1809
      8 C          61.9793   88.7229   11.8140 C.2     1  UNL1        0.2432
      9 O          60.5913   88.8188   12.3746 O.2     1  UNL1       -0.2732
     10 N          62.7383   87.4324   11.9074 N.am    1  UNL1       -0.2990
     11 H          63.6493   87.3694   11.5395 H       1  UNL1        0.1498
     12 C          62.1093   86.2379   12.5613 C.3     1  UNL1        0.1179
     13 C          62.8462   84.9321   12.6052 C.ar    1  UNL1        0.0161
     14 C          63.1493   84.1987   11.3323 C.ar    1  UNL1        0.0103
     15 C          63.8861   82.8930   11.3763 C.ar    1  UNL1        0.0575
     16 CL         64.1892   82.1595   10.1033 Cl      1  UNL1       -0.0823
     17 C          64.3199   82.3206   12.6931 C.ar    1  UNL1        0.0129
     18 C          64.0169   83.0539   13.9660 C.ar    1  UNL1        0.0199
     19 C          63.2800   84.3597   13.9221 C.ar    1  UNL1        0.0839
     20 N          62.9769   85.0931   15.1950 N.ar    1  UNL1       -0.1889
     21 C          63.9043   86.0241   15.9184 C.ar    1  UNL1        0.2258
     22 N          63.1938   86.5306   17.1385 N.ar    1  UNL1       -0.1045
     23 N          61.8272   85.9127   17.1691 N.ar    1  UNL1       -0.0222
     24 N          61.6933   85.0243   15.9680 N.ar    1  UNL1       -0.0385
     25 C          65.6481   91.3166   13.3788 C.3     1  UNL1        0.2681
     26 C          66.1881   92.3351   12.4191 C.ar    1  UNL1        0.0265
     27 C          67.1225   91.9126   11.3244 C.ar    1  UNL1        0.0020
     28 C          67.6626   92.9310   10.3647 C.ar    1  UNL1        0.0294
     29 C          67.2683   94.3720   10.4997 C.ar    1  UNL1        0.1401
     30 F          67.8083   95.3904    9.5400 F       1  UNL1       -0.2042
     31 C          66.3339   94.7944   11.5944 C.ar    1  UNL1        0.0294
     32 C          65.7938   93.7760   12.5541 C.ar    1  UNL1        0.0020
     33 O          66.2543   91.1765   14.7436 O.3     1  UNL1       -0.4381
     34 C          66.1746   92.3126   15.7199 C.2     1  UNL1        0.3176
     35 O          64.9035   92.5642   16.4755 O.2     1  UNL1       -0.2501
     36 C          68.6913   92.8334   15.3394 C.3     1  UNL1        0.0122
     37 C          67.3659   93.1969   15.9405 C.3     1  UNL1        0.1096
@<TRIPOS>BOND
     1    36    37    1
     2    37    34    1
     3    34    35    2
     4    34    33    1
     5    25    33    1
     6    25     1    1
     7     1     2    2
     8     1     3   am
     9     3     4    1
    10     4     5    2
    11     5     6    1
    12     6     7    1
    13     7     8    1
    14     8     9    2
    15     8    10   am
    16    10    12    1
    17    12    13    1
    18    13    14   ar
    19    14    15   ar
    20    15    16    1
    21    15    17   ar
    22    17    18   ar
    23    18    19   ar
    24    19    20    1
    25    20    21   ar
    26    21    22   ar
    27    22    23   ar
    28    23    24   ar
    29    25    26    1
    30    26    27   ar
    31    27    28   ar
    32    28    29   ar
    33    29    30    1
    34    29    31   ar
    35    31    32   ar
    36     7     3    1
    37    19    13   ar
    38    24    20   ar
    39    32    26   ar
    40    10    11    1
