@<TRIPOS>MOLECULE
*****
 33 36 0 0 0
SMALL
GASTEIGER

@<TRIPOS>ATOM
      1 N          64.4641   91.7473   12.2440 N.ar    1  UNL1       -0.2570
      2 C          65.7185   92.5430   12.4522 C.ar    1  UNL1        0.1213
      3 C          66.3078   92.6684   13.8258 C.ar    1  UNL1        0.0935
      4 C          65.6428   91.9981   14.9913 C.ar    1  UNL1        0.2674
      5 O          66.2321   92.1235   16.3650 O.2     1  UNL1       -0.2667
      6 N          64.3884   91.2024   14.7832 N.ar    1  UNL1       -0.2428
      7 C          63.7990   91.0770   13.4094 C.ar    1  UNL1        0.3357
      8 O          62.5446   90.2813   13.2013 O.2     1  UNL1       -0.2461
      9 N          66.3835   93.2134   11.2867 N.pl3   1  UNL1       -0.2930
     10 C          66.1580   94.6745   11.0331 C.3     1  UNL1        0.0922
     11 C          66.8231   95.3448    9.8676 C.3     1  UNL1        0.0229
     12 C          67.7136   94.5541    8.9557 C.3     1  UNL1        0.0190
     13 C          67.9392   93.0930    9.2093 C.3     1  UNL1        0.0709
     14 N          68.8298   92.3022    8.2974 N.3     1  UNL1       -0.3208
     15 C          67.2741   92.4226   10.3748 C.3     1  UNL1        0.1075
     16 H          68.8689   91.3340    8.6160 H       1  UNL1        0.1189
     17 H          69.7682   92.7019    8.3080 H       1  UNL1        0.1189
     18 C          63.8747   91.6220   10.8704 C.3     1  UNL1        0.1879
     19 C          61.7405   87.8453    9.6738 C.3     1  UNL1        0.0900
     20 C          62.4519   89.1042   10.0726 C.1     1  UNL1       -0.0881
     21 C          63.1633   90.3630   10.4715 C.1     1  UNL1       -0.0655
     22 C          63.7233   90.5321   15.9486 C.3     1  UNL1        0.1592
     23 C          63.5922   89.0381   15.9798 C.ar    1  UNL1        0.0820
     24 C          63.0402   88.3590   17.1980 C.ar    1  UNL1        0.0167
     25 C          62.9091   86.8650   17.2292 C.ar    1  UNL1        0.0028
     26 C          63.3300   86.0503   16.0422 C.ar    1  UNL1        0.0174
     27 C          63.1989   84.5563   16.0734 C.ar    1  UNL1       -0.0028
     28 C          63.6198   83.7415   14.8864 C.ar    1  UNL1       -0.0218
     29 C          63.4887   82.2476   14.9176 C.3     1  UNL1        0.0310
     30 C          64.1718   84.4207   13.6682 C.ar    1  UNL1       -0.0027
     31 C          64.3029   85.9147   13.6370 C.ar    1  UNL1        0.0188
     32 C          63.8820   86.7294   14.8240 C.ar    1  UNL1        0.0809
     33 N          64.0131   88.2233   14.7928 N.ar    1  UNL1       -0.2477
@<TRIPOS>BOND
     1    19    20    1
     2    20    21    3
     3    21    18    1
     4    18     1    1
     5     1     2   ar
     6     2     9    1
     7     9    10    1
     8    10    11    1
     9    11    12    1
    10    12    13    1
    11    13    14    1
    12    13    15    1
    13     2     3   ar
    14     3     4   ar
    15     4     5    2
    16     4     6   ar
    17     6    22    1
    18    22    23    1
    19    23    24   ar
    20    24    25   ar
    21    25    26   ar
    22    26    27   ar
    23    27    28   ar
    24    28    29    1
    25    28    30   ar
    26    30    31   ar
    27    31    32   ar
    28    32    33   ar
    29     6     7   ar
    30     7     8    2
    31     7     1   ar
    32    15     9    1
    33    33    23   ar
    34    32    26   ar
    35    14    16    1
    36    14    17    1
@<TRIPOS>MOLECULE
*****
 33 36 0 0 0
SMALL
GASTEIGER

@<TRIPOS>ATOM
      1 N          64.7322   91.5872   12.3816 N.ar    1  UNL1       -0.2570
      2 C          65.1240   91.4316   13.8211 C.ar    1  UNL1        0.1213
      3 C          64.2013   90.7378   14.7788 C.ar    1  UNL1        0.0935
      4 C          62.8867   90.1995   14.2969 C.ar    1  UNL1        0.2674
      5 O          61.9640   89.5056   15.2546 O.2     1  UNL1       -0.2667
      6 N          62.4949   90.3551   12.8574 N.ar    1  UNL1       -0.2428
      7 C          63.4177   91.0490   11.8997 C.ar    1  UNL1        0.3357
      8 O          63.0259   91.2045   10.4602 O.2     1  UNL1       -0.2461
      9 N          66.4386   91.9699   14.3030 N.pl3   1  UNL1       -0.2930
     10 C          66.4920   92.8306   15.5304 C.3     1  UNL1        0.0922
     11 C          67.8066   93.3688   16.0123 C.3     1  UNL1        0.0229
     12 C          69.0677   93.0465   15.2668 C.3     1  UNL1        0.0190
     13 C          69.0142   92.1858   14.0395 C.3     1  UNL1        0.0709
     14 N          70.2753   91.8634   13.2940 N.3     1  UNL1       -0.3208
     15 C          67.6997   91.6475   13.5575 C.3     1  UNL1        0.1075
     16 H          70.0548   91.2725   12.4924 H       1  UNL1        0.1189
     17 H          70.9195   91.3707   13.9127 H       1  UNL1        0.1189
     18 C          65.6549   92.2811   11.4239 C.3     1  UNL1        0.1879
     19 C          66.0086   96.7666   11.4905 C.3     1  UNL1        0.0900
     20 C          65.8907   95.2715   11.4683 C.1     1  UNL1       -0.0881
     21 C          65.7728   93.7763   11.4461 C.1     1  UNL1       -0.0655
     22 C          61.1804   89.8168   12.3755 C.3     1  UNL1        0.1592
     23 C          61.1281   88.9481   11.1537 C.ar    1  UNL1        0.0820
     24 C          60.1486   89.2516   10.0590 C.ar    1  UNL1        0.0167
     25 C          60.0964   88.3830    8.8373 C.ar    1  UNL1        0.0028
     26 C          61.0237   87.2108    8.7103 C.ar    1  UNL1        0.0174
     27 C          60.9714   86.3421    7.4885 C.ar    1  UNL1       -0.0028
     28 C          61.8987   85.1698    7.3615 C.ar    1  UNL1       -0.0218
     29 C          61.8465   84.3012    6.1398 C.3     1  UNL1        0.0310
     30 C          62.8782   84.8663    8.4563 C.ar    1  UNL1       -0.0027
     31 C          62.9304   85.7350    9.6780 C.ar    1  UNL1        0.0188
     32 C          62.0032   86.9072    9.8050 C.ar    1  UNL1        0.0809
     33 N          62.0554   87.7759   11.0267 N.ar    1  UNL1       -0.2477
@<TRIPOS>BOND
     1    19    20    1
     2    20    21    3
     3    21    18    1
     4    18     1    1
     5     1     2   ar
     6     2     9    1
     7     9    10    1
     8    10    11    1
     9    11    12    1
    10    12    13    1
    11    13    14    1
    12    13    15    1
    13     2     3   ar
    14     3     4   ar
    15     4     5    2
    16     4     6   ar
    17     6    22    1
    18    22    23    1
    19    23    24   ar
    20    24    25   ar
    21    25    26   ar
    22    26    27   ar
    23    27    28   ar
    24    28    29    1
    25    28    30   ar
    26    30    31   ar
    27    31    32   ar
    28    32    33   ar
    29     6     7   ar
    30     7     8    2
    31     7     1   ar
    32    15     9    1
    33    33    23   ar
    34    32    26   ar
    35    14    16    1
    36    14    17    1
@<TRIPOS>MOLECULE
*****
 33 36 0 0 0
SMALL
GASTEIGER

@<TRIPOS>ATOM
      1 N          63.5367   90.6251   14.3585 N.ar    1  UNL1       -0.2570
      2 C          64.5834   91.2875   13.5126 C.ar    1  UNL1        0.1213
      3 C          64.3477   91.4833   12.0443 C.ar    1  UNL1        0.0935
      4 C          63.0652   91.0167   11.4217 C.ar    1  UNL1        0.2674
      5 O          62.8294   91.2125    9.9534 O.2     1  UNL1       -0.2667
      6 N          62.0184   90.3543   12.2676 N.ar    1  UNL1       -0.2428
      7 C          62.2542   90.1585   13.7360 C.ar    1  UNL1        0.3357
      8 O          61.2075   89.4961   14.5819 O.2     1  UNL1       -0.2461
      9 N          65.8659   91.7542   14.1350 N.pl3   1  UNL1       -0.2930
     10 C          65.8532   92.3844   15.4962 C.3     1  UNL1        0.0922
     11 C          67.1356   92.8511   16.1187 C.3     1  UNL1        0.0229
     12 C          68.4309   92.6875   15.3800 C.3     1  UNL1        0.0190
     13 C          68.4436   92.0572   14.0189 C.3     1  UNL1        0.0709
     14 N          69.7389   91.8936   13.2803 N.3     1  UNL1       -0.3208
     15 C          67.1611   91.5906   13.3964 C.3     1  UNL1        0.1075
     16 H          69.5625   91.4506   12.3786 H       1  UNL1        0.1189
     17 H          70.3713   91.3101   13.8280 H       1  UNL1        0.1189
     18 C          63.7724   90.4293   15.8268 C.3     1  UNL1        0.1879
     19 C          62.6044   86.5554   17.7962 C.3     1  UNL1        0.0900
     20 C          62.9937   87.8467   17.1397 C.1     1  UNL1       -0.0881
     21 C          63.3831   89.1380   16.4833 C.1     1  UNL1       -0.0655
     22 C          60.7360   89.8877   11.6452 C.3     1  UNL1        0.1592
     23 C          60.7669   88.9205   10.4989 C.ar    1  UNL1        0.0820
     24 C          59.7367   89.0119    9.4125 C.ar    1  UNL1        0.0167
     25 C          59.7677   88.0448    8.2664 C.ar    1  UNL1        0.0028
     26 C          60.8290   86.9864    8.2066 C.ar    1  UNL1        0.0174
     27 C          60.8600   86.0193    7.0603 C.ar    1  UNL1       -0.0028
     28 C          61.9212   84.9609    7.0005 C.ar    1  UNL1       -0.0218
     29 C          61.9522   83.9938    5.8544 C.3     1  UNL1        0.0310
     30 C          62.9514   84.8696    8.0870 C.ar    1  UNL1       -0.0027
     31 C          62.9204   85.8367    9.2332 C.ar    1  UNL1        0.0188
     32 C          61.8592   86.8951    9.2930 C.ar    1  UNL1        0.0809
     33 N          61.8282   87.8621   10.4391 N.ar    1  UNL1       -0.2477
@<TRIPOS>BOND
     1    19    20    1
     2    20    21    3
     3    21    18    1
     4    18     1    1
     5     1     2   ar
     6     2     9    1
     7     9    10    1
     8    10    11    1
     9    11    12    1
    10    12    13    1
    11    13    14    1
    12    13    15    1
    13     2     3   ar
    14     3     4   ar
    15     4     5    2
    16     4     6   ar
    17     6    22    1
    18    22    23    1
    19    23    24   ar
    20    24    25   ar
    21    25    26   ar
    22    26    27   ar
    23    27    28   ar
    24    28    29    1
    25    28    30   ar
    26    30    31   ar
    27    31    32   ar
    28    32    33   ar
    29     6     7   ar
    30     7     8    2
    31     7     1   ar
    32    15     9    1
    33    33    23   ar
    34    32    26   ar
    35    14    16    1
    36    14    17    1
@<TRIPOS>MOLECULE
*****
 33 36 0 0 0
SMALL
GASTEIGER

@<TRIPOS>ATOM
      1 N          65.0026   91.7335   12.3864 N.ar    1  UNL1       -0.2570
      2 C          65.5533   91.2970   13.7116 C.ar    1  UNL1        0.1213
      3 C          64.9656   90.1087   14.4134 C.ar    1  UNL1        0.0935
      4 C          63.8271   89.3568   13.7900 C.ar    1  UNL1        0.2674
      5 O          63.2394   88.1685   14.4917 O.2     1  UNL1       -0.2667
      6 N          63.2764   89.7933   12.4647 N.ar    1  UNL1       -0.2428
      7 C          63.8642   90.9817   11.7630 C.ar    1  UNL1        0.3357
      8 O          63.3134   91.4181   10.4378 O.2     1  UNL1       -0.2461
      9 N          66.6917   92.0488   14.3351 N.pl3   1  UNL1       -0.2930
     10 C          66.4288   93.0229   15.4450 C.3     1  UNL1        0.0922
     11 C          67.5672   93.7747   16.0685 C.3     1  UNL1        0.0229
     12 C          68.9686   93.5524   15.5821 C.3     1  UNL1        0.0190
     13 C          69.2316   92.5783   14.4722 C.3     1  UNL1        0.0709
     14 N          70.6330   92.3560   13.9858 N.3     1  UNL1       -0.3208
     15 C          68.0931   91.8264   13.8487 C.3     1  UNL1        0.1075
     16 H          70.6266   91.6667   13.2339 H       1  UNL1        0.1189
     17 H          71.2098   92.0149   14.7548 H       1  UNL1        0.1189
     18 C          65.5903   92.9217   11.6847 C.3     1  UNL1        0.1879
     19 C          68.9024   92.3560    8.6914 C.3     1  UNL1        0.0900
     20 C          67.7984   92.5446    9.6891 C.1     1  UNL1       -0.0881
     21 C          66.6944   92.7332   10.6869 C.1     1  UNL1       -0.0655
     22 C          62.1379   89.0415   11.8413 C.3     1  UNL1        0.1592
     23 C          62.3427   87.6367   11.3569 C.ar    1  UNL1        0.0820
     24 C          62.2013   87.3183    9.8979 C.ar    1  UNL1        0.0167
     25 C          62.4061   85.9135    9.4136 C.ar    1  UNL1        0.0028
     26 C          62.7523   84.8271   10.3882 C.ar    1  UNL1        0.0174
     27 C          62.9570   83.4223    9.9038 C.ar    1  UNL1       -0.0028
     28 C          63.3032   82.3359   10.8785 C.ar    1  UNL1       -0.0218
     29 C          63.5080   80.9311   10.3941 C.3     1  UNL1        0.0310
     30 C          63.4446   82.6543   12.3375 C.ar    1  UNL1       -0.0027
     31 C          63.2398   84.0591   12.8218 C.ar    1  UNL1        0.0188
     32 C          62.8936   85.1455   11.8472 C.ar    1  UNL1        0.0809
     33 N          62.6889   86.5503   12.3315 N.ar    1  UNL1       -0.2477
@<TRIPOS>BOND
     1    19    20    1
     2    20    21    3
     3    21    18    1
     4    18     1    1
     5     1     2   ar
     6     2     9    1
     7     9    10    1
     8    10    11    1
     9    11    12    1
    10    12    13    1
    11    13    14    1
    12    13    15    1
    13     2     3   ar
    14     3     4   ar
    15     4     5    2
    16     4     6   ar
    17     6    22    1
    18    22    23    1
    19    23    24   ar
    20    24    25   ar
    21    25    26   ar
    22    26    27   ar
    23    27    28   ar
    24    28    29    1
    25    28    30   ar
    26    30    31   ar
    27    31    32   ar
    28    32    33   ar
    29     6     7   ar
    30     7     8    2
    31     7     1   ar
    32    15     9    1
    33    33    23   ar
    34    32    26   ar
    35    14    16    1
    36    14    17    1
@<TRIPOS>MOLECULE
*****
 33 36 0 0 0
SMALL
GASTEIGER

@<TRIPOS>ATOM
      1 N          65.5348   92.6004   12.7097 N.ar    1  UNL1       -0.2570
      2 C          65.2948   92.5641   11.2295 C.ar    1  UNL1        0.1213
      3 C          64.3133   91.5875   10.6525 C.ar    1  UNL1        0.0935
      4 C          63.5718   90.6471   11.5558 C.ar    1  UNL1        0.2674
      5 O          62.5904   89.6705   10.9789 O.2     1  UNL1       -0.2667
      6 N          63.8118   90.6833   13.0361 N.ar    1  UNL1       -0.2428
      7 C          64.7934   91.6600   13.6130 C.ar    1  UNL1        0.3357
      8 O          65.0334   91.6963   15.0932 O.2     1  UNL1       -0.2461
      9 N          66.0362   93.5044   10.3262 N.pl3   1  UNL1       -0.2930
     10 C          67.4726   93.2398    9.9842 C.3     1  UNL1        0.0922
     11 C          68.2140   94.1801    9.0809 C.3     1  UNL1        0.0229
     12 C          67.5192   95.3852    8.5196 C.3     1  UNL1        0.0190
     13 C          66.0829   95.6499    8.8616 C.3     1  UNL1        0.0709
     14 N          65.3881   96.8549    8.3003 N.3     1  UNL1       -0.3208
     15 C          65.3414   94.7095    9.7649 C.3     1  UNL1        0.1075
     16 H          64.4245   96.8780    8.6340 H       1  UNL1        0.1189
     17 H          65.3940   96.8070    7.2815 H       1  UNL1        0.1189
     18 C          66.5163   93.5770   13.2867 C.3     1  UNL1        0.1879
     19 C          69.3463   92.2711   16.5325 C.3     1  UNL1        0.0900
     20 C          68.4030   92.7064   15.4506 C.1     1  UNL1       -0.0881
     21 C          67.4597   93.1417   14.3687 C.1     1  UNL1       -0.0655
     22 C          63.0704   89.7430   13.9393 C.3     1  UNL1        0.1592
     23 C          63.3963   88.2788   13.9281 C.ar    1  UNL1        0.0820
     24 C          64.2177   87.6848   15.0337 C.ar    1  UNL1        0.0167
     25 C          64.5436   86.2207   15.0224 C.ar    1  UNL1        0.0028
     26 C          64.0481   85.3506   13.9056 C.ar    1  UNL1        0.0174
     27 C          64.3740   83.8864   13.8943 C.ar    1  UNL1       -0.0028
     28 C          63.8785   83.0164   12.7775 C.ar    1  UNL1       -0.0218
     29 C          64.2043   81.5523   12.7662 C.3     1  UNL1        0.0310
     30 C          63.0570   83.6104   11.6718 C.ar    1  UNL1       -0.0027
     31 C          62.7311   85.0745   11.6831 C.ar    1  UNL1        0.0188
     32 C          63.2266   85.9446   12.8000 C.ar    1  UNL1        0.0809
     33 N          62.9008   87.4087   12.8112 N.ar    1  UNL1       -0.2477
@<TRIPOS>BOND
     1    19    20    1
     2    20    21    3
     3    21    18    1
     4    18     1    1
     5     1     2   ar
     6     2     9    1
     7     9    10    1
     8    10    11    1
     9    11    12    1
    10    12    13    1
    11    13    14    1
    12    13    15    1
    13     2     3   ar
    14     3     4   ar
    15     4     5    2
    16     4     6   ar
    17     6    22    1
    18    22    23    1
    19    23    24   ar
    20    24    25   ar
    21    25    26   ar
    22    26    27   ar
    23    27    28   ar
    24    28    29    1
    25    28    30   ar
    26    30    31   ar
    27    31    32   ar
    28    32    33   ar
    29     6     7   ar
    30     7     8    2
    31     7     1   ar
    32    15     9    1
    33    33    23   ar
    34    32    26   ar
    35    14    16    1
    36    14    17    1
@<TRIPOS>MOLECULE
*****
 33 36 0 0 0
SMALL
GASTEIGER

@<TRIPOS>ATOM
      1 N          64.7709   91.8518   12.6954 N.ar    1  UNL1       -0.2570
      2 C          65.3881   91.3894   13.9820 C.ar    1  UNL1        0.1213
      3 C          64.7557   90.2726   14.7584 C.ar    1  UNL1        0.0935
      4 C          63.5060   89.6183   14.2483 C.ar    1  UNL1        0.2674
      5 O          62.8735   88.5015   15.0247 O.2     1  UNL1       -0.2667
      6 N          62.8888   90.0807   12.9617 N.ar    1  UNL1       -0.2428
      7 C          63.5213   91.1975   12.1853 C.ar    1  UNL1        0.3357
      8 O          62.9041   91.6600   10.8988 O.2     1  UNL1       -0.2461
      9 N          66.6377   92.0437   14.4921 N.pl3   1  UNL1       -0.2930
     10 C          66.5701   92.9804   15.6618 C.3     1  UNL1        0.0922
     11 C          67.8197   93.6347   16.1720 C.3     1  UNL1        0.0229
     12 C          69.1370   93.3523   15.5125 C.3     1  UNL1        0.0190
     13 C          69.2047   92.4157   14.3429 C.3     1  UNL1        0.0709
     14 N          70.5221   92.1333   13.6834 N.3     1  UNL1       -0.3208
     15 C          67.9551   91.7613   13.8327 C.3     1  UNL1        0.1075
     16 H          70.3832   91.4804   12.9121 H       1  UNL1        0.1189
     17 H          71.1623   91.7243   14.3640 H       1  UNL1        0.1189
     18 C          65.4033   92.9686   11.9190 C.3     1  UNL1        0.1879
     19 C          68.6760   92.0806    8.9608 C.3     1  UNL1        0.0900
     20 C          67.5851   92.3766    9.9469 C.1     1  UNL1       -0.0881
     21 C          66.4943   92.6726   10.9329 C.1     1  UNL1       -0.0655
     22 C          61.6392   89.4264   12.4516 C.3     1  UNL1        0.1592
     23 C          61.7262   88.3618   11.3984 C.ar    1  UNL1        0.0820
     24 C          62.7149   87.2430   11.5429 C.ar    1  UNL1        0.0167
     25 C          62.8019   86.1785   10.4898 C.ar    1  UNL1        0.0028
     26 C          61.9003   86.2326    9.2923 C.ar    1  UNL1        0.0174
     27 C          61.9873   85.1680    8.2391 C.ar    1  UNL1       -0.0028
     28 C          61.0857   85.2222    7.0416 C.ar    1  UNL1       -0.0218
     29 C          61.1727   84.1576    5.9885 C.3     1  UNL1        0.0310
     30 C          60.0970   86.3410    6.8972 C.ar    1  UNL1       -0.0027
     31 C          60.0100   87.4056    7.9503 C.ar    1  UNL1        0.0188
     32 C          60.9116   87.3514    9.1478 C.ar    1  UNL1        0.0809
     33 N          60.8246   88.4160   10.2009 N.ar    1  UNL1       -0.2477
@<TRIPOS>BOND
     1    19    20    1
     2    20    21    3
     3    21    18    1
     4    18     1    1
     5     1     2   ar
     6     2     9    1
     7     9    10    1
     8    10    11    1
     9    11    12    1
    10    12    13    1
    11    13    14    1
    12    13    15    1
    13     2     3   ar
    14     3     4   ar
    15     4     5    2
    16     4     6   ar
    17     6    22    1
    18    22    23    1
    19    23    24   ar
    20    24    25   ar
    21    25    26   ar
    22    26    27   ar
    23    27    28   ar
    24    28    29    1
    25    28    30   ar
    26    30    31   ar
    27    31    32   ar
    28    32    33   ar
    29     6     7   ar
    30     7     8    2
    31     7     1   ar
    32    15     9    1
    33    33    23   ar
    34    32    26   ar
    35    14    16    1
    36    14    17    1
@<TRIPOS>MOLECULE
*****
 33 36 0 0 0
SMALL
GASTEIGER

@<TRIPOS>ATOM
      1 N          64.4394   91.5977   11.6231 N.ar    1  UNL1       -0.2570
      2 C          65.7579   92.2814   11.8334 C.ar    1  UNL1        0.1213
      3 C          66.5418   92.0295   13.0871 C.ar    1  UNL1        0.0935
      4 C          66.0072   91.0941   14.1308 C.ar    1  UNL1        0.2674
      5 O          66.7911   90.8422   15.3846 O.2     1  UNL1       -0.2667
      6 N          64.6887   90.4105   13.9206 N.ar    1  UNL1       -0.2428
      7 C          63.9048   90.6623   12.6667 C.ar    1  UNL1        0.3357
      8 O          62.5863   89.9787   12.4565 O.2     1  UNL1       -0.2461
      9 N          66.2925   93.2168   10.7898 N.pl3   1  UNL1       -0.2930
     10 C          67.4502   92.8003    9.9315 C.3     1  UNL1        0.0922
     11 C          67.9848   93.7358    8.8879 C.3     1  UNL1        0.0229
     12 C          67.3619   95.0876    8.7025 C.3     1  UNL1        0.0190
     13 C          66.2043   95.5041    9.5607 C.3     1  UNL1        0.0709
     14 N          65.5814   96.8560    9.3754 N.3     1  UNL1       -0.3208
     15 C          65.6696   94.5687   10.6044 C.3     1  UNL1        0.1075
     16 H          64.8138   96.9703   10.0373 H       1  UNL1        0.1189
     17 H          65.2245   96.9382    8.4234 H       1  UNL1        0.1189
     18 C          63.6555   91.8496   10.3694 C.3     1  UNL1        0.1879
     19 C          60.4034   88.9937    9.1373 C.3     1  UNL1        0.0900
     20 C          61.4874   89.9456    9.5480 C.1     1  UNL1       -0.0881
     21 C          62.5714   90.8976    9.9586 C.1     1  UNL1       -0.0655
     22 C          64.1541   89.4750   14.9642 C.3     1  UNL1        0.1592
     23 C          64.0170   88.0124   14.6609 C.ar    1  UNL1        0.0820
     24 C          64.3712   86.9938   15.7035 C.ar    1  UNL1        0.0167
     25 C          64.2341   85.5313   15.4002 C.ar    1  UNL1        0.0028
     26 C          63.7427   85.0872   14.0543 C.ar    1  UNL1        0.0174
     27 C          63.6056   83.6246   13.7511 C.ar    1  UNL1       -0.0028
     28 C          63.1143   83.1805   12.4052 C.ar    1  UNL1       -0.0218
     29 C          62.9772   81.7180   12.1019 C.3     1  UNL1        0.0310
     30 C          62.7600   84.1992   11.3626 C.ar    1  UNL1       -0.0027
     31 C          62.8972   85.6617   11.6659 C.ar    1  UNL1        0.0188
     32 C          63.3885   86.1058   13.0117 C.ar    1  UNL1        0.0809
     33 N          63.5256   87.5683   13.3150 N.ar    1  UNL1       -0.2477
@<TRIPOS>BOND
     1    19    20    1
     2    20    21    3
     3    21    18    1
     4    18     1    1
     5     1     2   ar
     6     2     9    1
     7     9    10    1
     8    10    11    1
     9    11    12    1
    10    12    13    1
    11    13    14    1
    12    13    15    1
    13     2     3   ar
    14     3     4   ar
    15     4     5    2
    16     4     6   ar
    17     6    22    1
    18    22    23    1
    19    23    24   ar
    20    24    25   ar
    21    25    26   ar
    22    26    27   ar
    23    27    28   ar
    24    28    29    1
    25    28    30   ar
    26    30    31   ar
    27    31    32   ar
    28    32    33   ar
    29     6     7   ar
    30     7     8    2
    31     7     1   ar
    32    15     9    1
    33    33    23   ar
    34    32    26   ar
    35    14    16    1
    36    14    17    1
@<TRIPOS>MOLECULE
*****
 33 36 0 0 0
SMALL
GASTEIGER

@<TRIPOS>ATOM
      1 N          61.9885   86.5358   11.1252 N.ar    1  UNL1       -0.2570
      2 C          62.8523   85.8076   12.1119 C.ar    1  UNL1        0.1213
      3 C          63.6798   86.5789   13.0969 C.ar    1  UNL1        0.0935
      4 C          63.6434   88.0786   13.0953 C.ar    1  UNL1        0.2674
      5 O          64.4709   88.8499   14.0803 O.2     1  UNL1       -0.2667
      6 N          62.7796   88.8067   12.1086 N.ar    1  UNL1       -0.2428
      7 C          61.9522   88.0353   11.1235 C.ar    1  UNL1        0.3357
      8 O          61.0883   88.7635   10.1368 O.2     1  UNL1       -0.2461
      9 N          62.8887   84.3081   12.1136 N.pl3   1  UNL1       -0.2930
     10 C          63.4417   83.5699   10.9306 C.3     1  UNL1        0.0922
     11 C          63.4780   82.0704   10.9323 C.3     1  UNL1        0.0229
     12 C          62.9615   81.3089   12.1169 C.3     1  UNL1        0.0190
     13 C          62.4086   82.0470   13.2999 C.3     1  UNL1        0.0709
     14 N          61.8920   81.2856   14.4845 N.3     1  UNL1       -0.3208
     15 C          62.3722   83.5466   13.2983 C.3     1  UNL1        0.1075
     16 H          61.5568   81.9413   15.1903 H       1  UNL1        0.1189
     17 H          62.6427   80.7177   14.8774 H       1  UNL1        0.1189
     18 C          61.1611   85.7644   10.1402 C.3     1  UNL1        0.1879
     19 C          62.8418   84.7603    6.0884 C.3     1  UNL1        0.0900
     20 C          62.2816   85.0950    7.4390 C.1     1  UNL1       -0.0881
     21 C          61.7213   85.4297    8.7895 C.1     1  UNL1       -0.0655
     22 C          62.7432   90.3063   12.1069 C.3     1  UNL1        0.1592
     23 C          63.9360   91.0860   12.5754 C.ar    1  UNL1        0.0820
     24 C          64.8436   91.7405   11.5766 C.ar    1  UNL1        0.0167
     25 C          66.0363   92.5202   12.0451 C.ar    1  UNL1        0.0028
     26 C          66.3214   92.6453   13.5124 C.ar    1  UNL1        0.0174
     27 C          67.5142   93.4250   13.9809 C.ar    1  UNL1       -0.0028
     28 C          67.7992   93.5501   15.4483 C.ar    1  UNL1       -0.0218
     29 C          68.9919   94.3298   15.9168 C.3     1  UNL1        0.0310
     30 C          66.8915   92.8955   16.4471 C.ar    1  UNL1       -0.0027
     31 C          65.6988   92.1158   15.9786 C.ar    1  UNL1        0.0188
     32 C          65.4138   91.9907   14.5112 C.ar    1  UNL1        0.0809
     33 N          64.2211   91.2111   14.0427 N.ar    1  UNL1       -0.2477
@<TRIPOS>BOND
     1    19    20    1
     2    20    21    3
     3    21    18    1
     4    18     1    1
     5     1     2   ar
     6     2     9    1
     7     9    10    1
     8    10    11    1
     9    11    12    1
    10    12    13    1
    11    13    14    1
    12    13    15    1
    13     2     3   ar
    14     3     4   ar
    15     4     5    2
    16     4     6   ar
    17     6    22    1
    18    22    23    1
    19    23    24   ar
    20    24    25   ar
    21    25    26   ar
    22    26    27   ar
    23    27    28   ar
    24    28    29    1
    25    28    30   ar
    26    30    31   ar
    27    31    32   ar
    28    32    33   ar
    29     6     7   ar
    30     7     8    2
    31     7     1   ar
    32    15     9    1
    33    33    23   ar
    34    32    26   ar
    35    14    16    1
    36    14    17    1
@<TRIPOS>MOLECULE
*****
 33 36 0 0 0
SMALL
GASTEIGER

@<TRIPOS>ATOM
      1 N          65.9096   92.6249   13.9799 N.ar    1  UNL1       -0.2570
      2 C          65.4346   92.4275   12.5709 C.ar    1  UNL1        0.1213
      3 C          64.2904   91.4996   12.2882 C.ar    1  UNL1        0.0935
      4 C          63.6213   90.7691   13.4146 C.ar    1  UNL1        0.2674
      5 O          62.4771   89.8412   13.1319 O.2     1  UNL1       -0.2667
      6 N          64.0963   90.9665   14.8236 N.ar    1  UNL1       -0.2428
      7 C          65.2405   91.8945   15.1063 C.ar    1  UNL1        0.3357
      8 O          65.7155   92.0919   16.5153 O.2     1  UNL1       -0.2461
      9 N          66.1037   93.1579   11.4445 N.pl3   1  UNL1       -0.2930
     10 C          65.8328   94.6179   11.2316 C.3     1  UNL1        0.0922
     11 C          66.5020   95.3483   10.1052 C.3     1  UNL1        0.0229
     12 C          67.4419   94.6189    9.1918 C.3     1  UNL1        0.0190
     13 C          67.7127   93.1590    9.4047 C.3     1  UNL1        0.0709
     14 N          68.6527   92.4296    8.4912 N.3     1  UNL1       -0.3208
     15 C          67.0436   92.4285   10.5311 C.3     1  UNL1        0.1075
     16 H          68.7183   91.4535    8.7799 H       1  UNL1        0.1189
     17 H          69.5758   92.8609    8.5383 H       1  UNL1        0.1189
     18 C          67.0537   93.5528   14.2626 C.3     1  UNL1        0.1879
     19 C          70.3771   92.2565   17.0057 C.3     1  UNL1        0.0900
     20 C          69.2693   92.6886   16.0914 C.1     1  UNL1       -0.0881
     21 C          68.1616   93.1207   15.1770 C.1     1  UNL1       -0.0655
     22 C          63.4272   90.2361   15.9499 C.3     1  UNL1        0.1592
     23 C          63.4004   88.7363   15.9603 C.ar    1  UNL1        0.0820
     24 C          62.9393   88.0028   17.1847 C.ar    1  UNL1        0.0167
     25 C          62.9126   86.5031   17.1950 C.ar    1  UNL1        0.0028
     26 C          63.3469   85.7369   15.9808 C.ar    1  UNL1        0.0174
     27 C          63.3201   84.2372   15.9911 C.ar    1  UNL1       -0.0028
     28 C          63.7545   83.4709   14.7769 C.ar    1  UNL1       -0.0218
     29 C          63.7277   81.9712   14.7872 C.3     1  UNL1        0.0310
     30 C          64.2156   84.2045   13.5524 C.ar    1  UNL1       -0.0027
     31 C          64.2423   85.7042   13.5421 C.ar    1  UNL1        0.0188
     32 C          63.8080   86.4704   14.7563 C.ar    1  UNL1        0.0809
     33 N          63.8348   87.9701   14.7461 N.ar    1  UNL1       -0.2477
@<TRIPOS>BOND
     1    19    20    1
     2    20    21    3
     3    21    18    1
     4    18     1    1
     5     1     2   ar
     6     2     9    1
     7     9    10    1
     8    10    11    1
     9    11    12    1
    10    12    13    1
    11    13    14    1
    12    13    15    1
    13     2     3   ar
    14     3     4   ar
    15     4     5    2
    16     4     6   ar
    17     6    22    1
    18    22    23    1
    19    23    24   ar
    20    24    25   ar
    21    25    26   ar
    22    26    27   ar
    23    27    28   ar
    24    28    29    1
    25    28    30   ar
    26    30    31   ar
    27    31    32   ar
    28    32    33   ar
    29     6     7   ar
    30     7     8    2
    31     7     1   ar
    32    15     9    1
    33    33    23   ar
    34    32    26   ar
    35    14    16    1
    36    14    17    1
