@<TRIPOS>MOLECULE
*****
 38 42 0 0 0
SMALL
GASTEIGER

@<TRIPOS>ATOM
      1 C          63.0668   88.9429   12.3373 C.3     1  UNL1        0.1631
      2 N          63.9369   89.9348   13.0508 N.ar    1  UNL1       -0.3047
      3 C          64.3131   89.8939   14.5023 C.ar    1  UNL1        0.1441
      4 N          65.1922   91.0756   14.7866 N.ar    1  UNL1       -0.2267
      5 C          65.3593   91.8468   13.5109 C.ar    1  UNL1        0.1010
      6 C          66.1177   93.0998   13.1876 C.ar    1  UNL1        0.0526
      7 C          66.1002   93.6479   11.7914 C.ar    1  UNL1        0.1690
      8 F          66.8585   94.9010   11.4680 F       1  UNL1       -0.2017
      9 C          65.3243   92.9428   10.7186 C.ar    1  UNL1        0.1689
     10 F          65.3068   93.4909    9.3224 F       1  UNL1       -0.2017
     11 C          64.5659   91.6897   11.0420 C.ar    1  UNL1        0.0507
     12 C          64.5834   91.1417   12.4381 C.ar    1  UNL1        0.0816
     13 C          63.8854   88.8540   15.4951 C.ar    1  UNL1        0.0342
     14 C          63.0335   89.2417   16.6672 C.ar    1  UNL1        0.0039
     15 C          62.6058   88.2017   17.6600 C.ar    1  UNL1        0.0115
     16 C          63.0299   86.7742   17.4806 C.ar    1  UNL1        0.0577
     17 CL         62.6021   85.7343   18.4734 Cl      1  UNL1       -0.0822
     18 C          63.8817   86.3866   16.3084 C.ar    1  UNL1        0.0115
     19 C          64.3095   87.4265   15.3157 C.ar    1  UNL1        0.0039
     20 C          61.9835   89.4212   11.4167 C.3     1  UNL1        0.0297
     21 C          60.7844   90.1296   11.9738 C.3     1  UNL1        0.0024
     22 C          59.7009   90.6079   11.0533 C.3     1  UNL1        0.0001
     23 C          59.8166   90.3778    9.5756 C.3     1  UNL1        0.0000
     24 C          61.0156   89.6694    9.0184 C.3     1  UNL1        0.0001
     25 C          62.0991   89.1911    9.9390 C.3     1  UNL1        0.0024
     26 N          62.2198   86.4954   12.1311 N.am    1  UNL1       -0.2824
     27 C          63.2802   87.4726   12.5443 C.2     1  UNL1        0.2468
     28 O          64.3977   86.6523   13.1173 O.2     1  UNL1       -0.2727
     29 H          61.3838   86.8189   11.7241 H       1  UNL1        0.1549
     30 C          62.8600   82.0847   12.7525 C.ar    1  UNL1        0.0141
     31 C          62.4988   82.9612   13.9149 C.ar    1  UNL1        0.0024
     32 C          62.2854   84.4315   13.7078 C.ar    1  UNL1        0.0147
     33 C          62.4332   85.0252   12.3382 C.ar    1  UNL1        0.0503
     34 C          62.7944   84.1486   11.1758 C.ar    1  UNL1        0.0147
     35 C          63.0078   82.6784   11.3830 C.ar    1  UNL1        0.0024
     36 O          63.6206   80.1122   14.2627 O.co2   1  UNL1       -0.5446
     37 C          63.0734   80.6145   12.9596 C.2     1  UNL1        0.0729
     38 O          62.7395   79.6465   11.8634 O.co2   1  UNL1       -0.5446
@<TRIPOS>UNITY_ATOM_ATTR
36 1
charge -1
@<TRIPOS>BOND
     1    36    37   ar
     2    37    38   ar
     3    37    30    1
     4    30    31   ar
     5    31    32   ar
     6    32    33   ar
     7    33    26    1
     8    26    27   am
     9    27    28    2
    10    27     1    1
    11     1    20    1
    12    20    21    1
    13    21    22    1
    14    22    23    1
    15    23    24    1
    16    24    25    1
    17     1     2    1
    18     2     3   ar
    19     3    13    1
    20    13    14   ar
    21    14    15   ar
    22    15    16   ar
    23    16    17    1
    24    16    18   ar
    25    18    19   ar
    26     3     4   ar
    27     4     5   ar
    28     5     6   ar
    29     6     7   ar
    30     7     8    1
    31     7     9   ar
    32     9    10    1
    33     9    11   ar
    34    11    12   ar
    35    33    34   ar
    36    34    35   ar
    37    35    30   ar
    38    25    20    1
    39    12     2   ar
    40    19    13   ar
    41    12     5   ar
    42    26    29    1
@<TRIPOS>MOLECULE
*****
 38 42 0 0 0
SMALL
GASTEIGER

@<TRIPOS>ATOM
      1 C          63.0657   88.9410   12.3369 C.3     1  UNL1        0.1631
      2 N          63.9362   89.9331   13.0496 N.ar    1  UNL1       -0.3047
      3 C          64.3132   89.8927   14.5009 C.ar    1  UNL1        0.1441
      4 N          65.1925   91.0744   14.7844 N.ar    1  UNL1       -0.2267
      5 C          65.3589   91.8451   13.5083 C.ar    1  UNL1        0.1010
      6 C          66.1172   93.0981   13.1841 C.ar    1  UNL1        0.0526
      7 C          66.0990   93.6456   11.7878 C.ar    1  UNL1        0.1690
      8 F          66.8572   94.8986   11.4635 F       1  UNL1       -0.2017
      9 C          65.3225   92.9402   10.7156 C.ar    1  UNL1        0.1689
     10 F          65.3043   93.4878    9.3192 F       1  UNL1       -0.2017
     11 C          64.5643   91.6872   11.0398 C.ar    1  UNL1        0.0507
     12 C          64.5825   91.1397   12.4362 C.ar    1  UNL1        0.0816
     13 C          63.8859   88.8532   15.4943 C.ar    1  UNL1        0.0342
     14 C          63.0342   89.2412   16.6665 C.ar    1  UNL1        0.0039
     15 C          62.6069   88.2016   17.6599 C.ar    1  UNL1        0.0115
     16 C          63.0313   86.7741   17.4811 C.ar    1  UNL1        0.0577
     17 CL         62.6041   85.7346   18.4744 Cl      1  UNL1       -0.0822
     18 C          63.8830   86.3861   16.3089 C.ar    1  UNL1        0.0115
     19 C          64.3103   87.4257   15.3155 C.ar    1  UNL1        0.0039
     20 C          61.9816   89.4189   11.4171 C.3     1  UNL1        0.0297
     21 C          62.0957   89.1878    9.9394 C.3     1  UNL1        0.0024
     22 C          61.0115   89.6657    9.0195 C.3     1  UNL1        0.0001
     23 C          59.8132   90.3749    9.5774 C.3     1  UNL1        0.0000
     24 C          59.6991   90.6061   11.0550 C.3     1  UNL1        0.0001
     25 C          60.7833   90.1281   11.9749 C.3     1  UNL1        0.0024
     26 N          62.2184   86.4934   12.1328 N.am    1  UNL1       -0.2824
     27 C          63.2794   87.4707   12.5440 C.2     1  UNL1        0.2468
     28 O          64.3978   86.6506   13.1154 O.2     1  UNL1       -0.2727
     29 H          61.3818   86.8168   11.7269 H       1  UNL1        0.1549
     30 C          62.8596   82.0828   12.7543 C.ar    1  UNL1        0.0141
     31 C          62.4999   82.9596   13.9170 C.ar    1  UNL1        0.0024
     32 C          62.2861   84.4298   13.7098 C.ar    1  UNL1        0.0147
     33 C          62.4321   85.0232   12.3399 C.ar    1  UNL1        0.0503
     34 C          62.7919   84.1465   11.1772 C.ar    1  UNL1        0.0147
     35 C          63.0056   82.6763   11.3844 C.ar    1  UNL1        0.0024
     36 O          62.7377   79.6443   11.8662 O.co2   1  UNL1       -0.5446
     37 C          63.0734   80.6127   12.9614 C.2     1  UNL1        0.0729
     38 O          63.6228   80.1109   14.2639 O.co2   1  UNL1       -0.5446
@<TRIPOS>UNITY_ATOM_ATTR
36 1
charge -1
@<TRIPOS>BOND
     1    36    37   ar
     2    37    38   ar
     3    37    30    1
     4    30    31   ar
     5    31    32   ar
     6    32    33   ar
     7    33    26    1
     8    26    27   am
     9    27    28    2
    10    27     1    1
    11     1    20    1
    12    20    21    1
    13    21    22    1
    14    22    23    1
    15    23    24    1
    16    24    25    1
    17     1     2    1
    18     2     3   ar
    19     3    13    1
    20    13    14   ar
    21    14    15   ar
    22    15    16   ar
    23    16    17    1
    24    16    18   ar
    25    18    19   ar
    26     3     4   ar
    27     4     5   ar
    28     5     6   ar
    29     6     7   ar
    30     7     8    1
    31     7     9   ar
    32     9    10    1
    33     9    11   ar
    34    11    12   ar
    35    33    34   ar
    36    34    35   ar
    37    35    30   ar
    38    25    20    1
    39    12     2   ar
    40    19    13   ar
    41    12     5   ar
    42    26    29    1
@<TRIPOS>MOLECULE
*****
 38 42 0 0 0
SMALL
GASTEIGER

@<TRIPOS>ATOM
      1 C          62.0494   88.3331   12.0087 C.3     1  UNL1        0.1631
      2 N          62.1676   86.9567   11.4243 N.ar    1  UNL1       -0.3047
      3 C          61.6226   86.5115   10.0996 C.ar    1  UNL1        0.1441
      4 N          61.9698   85.0635    9.9187 N.ar    1  UNL1       -0.2267
      5 C          62.7294   84.6138   11.1315 C.ar    1  UNL1        0.1010
      6 C          63.3254   83.2900   11.5087 C.ar    1  UNL1        0.0526
      7 C          64.0438   83.1364   12.8164 C.ar    1  UNL1        0.1690
      8 F          64.6399   81.8126   13.1937 F       1  UNL1       -0.2017
      9 C          64.1661   84.3065   13.7470 C.ar    1  UNL1        0.1689
     10 F          64.8845   84.1528   15.0548 F       1  UNL1       -0.2017
     11 C          63.5700   85.6302   13.3698 C.ar    1  UNL1        0.0507
     12 C          62.8516   85.7839   12.0620 C.ar    1  UNL1        0.0816
     13 C          60.8637   87.3645    9.1268 C.ar    1  UNL1        0.0342
     14 C          59.7402   86.7730    8.3282 C.ar    1  UNL1        0.0039
     15 C          58.9813   87.6260    7.3554 C.ar    1  UNL1        0.0115
     16 C          59.3459   89.0705    7.1811 C.ar    1  UNL1        0.0577
     17 CL         58.5870   89.9235    6.2082 Cl      1  UNL1       -0.0822
     18 C          60.4694   89.6620    7.9796 C.ar    1  UNL1        0.0115
     19 C          61.2283   88.8090    8.9525 C.ar    1  UNL1        0.0039
     20 C          60.7339   89.0528   11.9727 C.3     1  UNL1        0.0297
     21 C          59.4933   88.3731   12.4718 C.3     1  UNL1        0.0024
     22 C          58.1777   89.0928   12.4358 C.3     1  UNL1        0.0001
     23 C          58.1027   90.4922   11.9008 C.3     1  UNL1        0.0000
     24 C          59.3433   91.1718   11.4019 C.3     1  UNL1        0.0001
     25 C          60.6589   90.4521   11.4378 C.3     1  UNL1        0.0024
     26 N          63.4759   90.4607   12.4435 N.am    1  UNL1       -0.2824
     27 C          63.2469   88.9899   12.6292 C.2     1  UNL1        0.2468
     28 O          64.3858   88.4973   13.4719 O.2     1  UNL1       -0.2727
     29 H          62.8403   90.9949   11.9145 H       1  UNL1        0.1549
     30 C          67.0682   92.4307   14.3050 C.ar    1  UNL1        0.0141
     31 C          66.1280   91.6285   15.1551 C.ar    1  UNL1        0.0024
     32 C          64.9306   90.9718   14.5346 C.ar    1  UNL1        0.0147
     33 C          64.6733   91.1173   13.0640 C.ar    1  UNL1        0.0503
     34 C          65.6134   91.9195   12.2139 C.ar    1  UNL1        0.0147
     35 C          66.8108   92.5762   12.8344 C.ar    1  UNL1        0.0024
     36 O          69.6427   92.7552   14.4324 O.co2   1  UNL1       -0.5446
     37 C          68.2656   93.0873   14.9254 C.2     1  UNL1        0.0729
     38 O          68.0857   94.0762   16.0390 O.co2   1  UNL1       -0.5446
@<TRIPOS>UNITY_ATOM_ATTR
36 1
charge -1
@<TRIPOS>BOND
     1    36    37   ar
     2    37    38   ar
     3    37    30    1
     4    30    31   ar
     5    31    32   ar
     6    32    33   ar
     7    33    26    1
     8    26    27   am
     9    27    28    2
    10    27     1    1
    11     1    20    1
    12    20    21    1
    13    21    22    1
    14    22    23    1
    15    23    24    1
    16    24    25    1
    17     1     2    1
    18     2     3   ar
    19     3    13    1
    20    13    14   ar
    21    14    15   ar
    22    15    16   ar
    23    16    17    1
    24    16    18   ar
    25    18    19   ar
    26     3     4   ar
    27     4     5   ar
    28     5     6   ar
    29     6     7   ar
    30     7     8    1
    31     7     9   ar
    32     9    10    1
    33     9    11   ar
    34    11    12   ar
    35    33    34   ar
    36    34    35   ar
    37    35    30   ar
    38    25    20    1
    39    12     2   ar
    40    19    13   ar
    41    12     5   ar
    42    26    29    1
@<TRIPOS>MOLECULE
*****
 38 42 0 0 0
SMALL
GASTEIGER

@<TRIPOS>ATOM
      1 C          62.9840   85.0047   12.2189 C.3     1  UNL1        0.1631
      2 N          62.8485   83.6716   12.8930 N.ar    1  UNL1       -0.3047
      3 C          62.7106   83.4397   14.3686 C.ar    1  UNL1        0.1441
      4 N          62.6041   81.9611   14.5974 N.ar    1  UNL1       -0.2267
      5 C          62.6762   81.2791   13.2634 C.ar    1  UNL1        0.1010
      6 C          62.6238   79.8322   12.8718 C.ar    1  UNL1        0.0526
      7 C          62.7226   79.4423   11.4267 C.ar    1  UNL1        0.1690
      8 F          62.6702   77.9952   11.0350 F       1  UNL1       -0.2017
      9 C          62.8737   80.4994   10.3733 C.ar    1  UNL1        0.1689
     10 F          62.9724   80.1095    8.9282 F       1  UNL1       -0.2017
     11 C          62.9260   81.9464   10.7649 C.ar    1  UNL1        0.0507
     12 C          62.8273   82.3363   12.2100 C.ar    1  UNL1        0.0816
     13 C          62.6838   84.5003   15.4290 C.ar    1  UNL1        0.0342
     14 C          63.9351   84.8374   16.1843 C.ar    1  UNL1        0.0039
     15 C          63.9083   85.8979   17.2448 C.ar    1  UNL1        0.0115
     16 C          62.6303   86.6213   17.5499 C.ar    1  UNL1        0.0577
     17 CL         62.6035   87.6819   18.6103 Cl      1  UNL1       -0.0822
     18 C          61.3790   86.2842   16.7946 C.ar    1  UNL1        0.0115
     19 C          61.4057   85.2237   15.7341 C.ar    1  UNL1        0.0039
     20 C          62.5554   85.1700   10.7910 C.3     1  UNL1        0.0297
     21 C          61.2479   85.8326   10.4723 C.3     1  UNL1        0.0024
     22 C          60.8193   85.9980    9.0444 C.3     1  UNL1        0.0001
     23 C          61.6982   85.5009    7.9351 C.3     1  UNL1        0.0000
     24 C          63.0056   84.8383    8.2538 C.3     1  UNL1        0.0001
     25 C          63.4343   84.6729    9.6817 C.3     1  UNL1        0.0024
     26 N          63.0364   87.5567   12.7036 N.am    1  UNL1       -0.2824
     27 C          63.5480   86.1725   12.9727 C.2     1  UNL1        0.2468
     28 O          64.5990   86.3191   14.0328 O.2     1  UNL1       -0.2727
     29 H          62.3304   87.6987   12.0322 H       1  UNL1        0.1549
     30 C          64.7287   91.0600   14.9648 C.ar    1  UNL1        0.0141
     31 C          64.6236   91.1126   13.4695 C.ar    1  UNL1        0.0024
     32 C          64.0594   89.9447   12.7157 C.ar    1  UNL1        0.0147
     33 C          63.6005   88.7244   13.4574 C.ar    1  UNL1        0.0503
     34 C          63.7056   88.6718   14.9527 C.ar    1  UNL1        0.0147
     35 C          64.2697   89.8395   15.7064 C.ar    1  UNL1        0.0024
     36 O          64.7078   92.6185   17.0434 O.co2   1  UNL1       -0.5446
     37 C          65.2927   92.2277   15.7186 C.2     1  UNL1        0.0729
     38 O          66.4418   93.0046   15.1475 O.co2   1  UNL1       -0.5446
@<TRIPOS>UNITY_ATOM_ATTR
36 1
charge -1
@<TRIPOS>BOND
     1    36    37   ar
     2    37    38   ar
     3    37    30    1
     4    30    31   ar
     5    31    32   ar
     6    32    33   ar
     7    33    26    1
     8    26    27   am
     9    27    28    2
    10    27     1    1
    11     1    20    1
    12    20    21    1
    13    21    22    1
    14    22    23    1
    15    23    24    1
    16    24    25    1
    17     1     2    1
    18     2     3   ar
    19     3    13    1
    20    13    14   ar
    21    14    15   ar
    22    15    16   ar
    23    16    17    1
    24    16    18   ar
    25    18    19   ar
    26     3     4   ar
    27     4     5   ar
    28     5     6   ar
    29     6     7   ar
    30     7     8    1
    31     7     9   ar
    32     9    10    1
    33     9    11   ar
    34    11    12   ar
    35    33    34   ar
    36    34    35   ar
    37    35    30   ar
    38    25    20    1
    39    12     2   ar
    40    19    13   ar
    41    12     5   ar
    42    26    29    1
@<TRIPOS>MOLECULE
*****
 38 42 0 0 0
SMALL
GASTEIGER

@<TRIPOS>ATOM
      1 C          62.8930   85.5761   11.3331 C.3     1  UNL1        0.1631
      2 N          63.2192   86.0775   12.7087 N.ar    1  UNL1       -0.3047
      3 C          63.3673   85.2361   13.9416 C.ar    1  UNL1        0.1441
      4 N          63.6942   86.1469   15.0877 N.ar    1  UNL1       -0.2267
      5 C          63.7480   87.5511   14.5632 C.ar    1  UNL1        0.1010
      6 C          64.0265   88.8633   15.2344 C.ar    1  UNL1        0.0526
      7 C          64.0113   90.1326   14.4353 C.ar    1  UNL1        0.1690
      8 F          64.2898   91.4449   15.1065 F       1  UNL1       -0.2017
      9 C          63.7178   90.0897   12.9649 C.ar    1  UNL1        0.1689
     10 F          63.7026   91.3591   12.1658 F       1  UNL1       -0.2017
     11 C          63.4393   88.7775   12.2937 C.ar    1  UNL1        0.0507
     12 C          63.4545   87.5082   13.0928 C.ar    1  UNL1        0.0816
     13 C          63.2153   83.7456   14.0155 C.ar    1  UNL1        0.0342
     14 C          64.3940   82.8574   13.7479 C.ar    1  UNL1        0.0039
     15 C          64.2420   81.3669   13.8218 C.ar    1  UNL1        0.0115
     16 C          62.9113   80.7647   14.1631 C.ar    1  UNL1        0.0577
     17 CL         62.7593   79.2743   14.2370 Cl      1  UNL1       -0.0822
     18 C          61.7326   81.6530   14.4307 C.ar    1  UNL1        0.0115
     19 C          61.8846   83.1435   14.3568 C.ar    1  UNL1        0.0039
     20 C          63.1222   84.1350   10.9861 C.3     1  UNL1        0.0297
     21 C          64.4472   83.6978   10.4351 C.3     1  UNL1        0.0024
     22 C          64.6765   82.2566   10.0880 C.3     1  UNL1        0.0001
     23 C          63.5808   81.2526   10.2920 C.3     1  UNL1        0.0000
     24 C          62.2560   81.6898   10.8430 C.3     1  UNL1        0.0001
     25 C          62.0267   83.1309   11.1900 C.3     1  UNL1        0.0024
     26 N          60.8539   86.6255   10.1119 N.am    1  UNL1       -0.2824
     27 C          62.3375   86.5160   10.3044 C.2     1  UNL1        0.2468
     28 O          62.9532   87.4683    9.3225 O.2     1  UNL1       -0.2727
     29 H          60.2448   86.0805   10.6606 H       1  UNL1        0.1549
     30 C          59.1877   89.4450    7.0257 C.ar    1  UNL1        0.0141
     31 C          59.0629   87.9628    6.8325 C.ar    1  UNL1        0.0024
     32 C          59.6184   87.0229    7.8613 C.ar    1  UNL1        0.0147
     33 C          60.2986   87.5654    9.0832 C.ar    1  UNL1        0.0503
     34 C          60.4233   89.0476    9.2764 C.ar    1  UNL1        0.0147
     35 C          59.8679   89.9874    8.2477 C.ar    1  UNL1        0.0024
     36 O          59.5610   91.2005    5.1472 O.co2   1  UNL1       -0.5446
     37 C          58.6323   90.3849    5.9971 C.2     1  UNL1        0.0729
     38 O          57.1482   90.5091    5.8184 O.co2   1  UNL1       -0.5446
@<TRIPOS>UNITY_ATOM_ATTR
36 1
charge -1
@<TRIPOS>BOND
     1    36    37   ar
     2    37    38   ar
     3    37    30    1
     4    30    31   ar
     5    31    32   ar
     6    32    33   ar
     7    33    26    1
     8    26    27   am
     9    27    28    2
    10    27     1    1
    11     1    20    1
    12    20    21    1
    13    21    22    1
    14    22    23    1
    15    23    24    1
    16    24    25    1
    17     1     2    1
    18     2     3   ar
    19     3    13    1
    20    13    14   ar
    21    14    15   ar
    22    15    16   ar
    23    16    17    1
    24    16    18   ar
    25    18    19   ar
    26     3     4   ar
    27     4     5   ar
    28     5     6   ar
    29     6     7   ar
    30     7     8    1
    31     7     9   ar
    32     9    10    1
    33     9    11   ar
    34    11    12   ar
    35    33    34   ar
    36    34    35   ar
    37    35    30   ar
    38    25    20    1
    39    12     2   ar
    40    19    13   ar
    41    12     5   ar
    42    26    29    1
@<TRIPOS>MOLECULE
*****
 38 42 0 0 0
SMALL
GASTEIGER

@<TRIPOS>ATOM
      1 C          62.8726   88.4847   12.0291 C.3     1  UNL1        0.1631
      2 N          63.4319   87.4488   12.9587 N.ar    1  UNL1       -0.3047
      3 C          64.0529   87.7100   14.2988 C.ar    1  UNL1        0.1441
      4 N          64.4733   86.3925   14.8796 N.ar    1  UNL1       -0.2267
      5 C          64.1120   85.3169   13.8984 C.ar    1  UNL1        0.1010
      6 C          64.2860   83.8275   13.9327 C.ar    1  UNL1        0.0526
      7 C          63.8164   82.9909   12.7796 C.ar    1  UNL1        0.1690
      8 F          63.9903   81.5013   12.8138 F       1  UNL1       -0.2017
      9 C          63.1728   83.6437   11.5924 C.ar    1  UNL1        0.1689
     10 F          62.7031   82.8071   10.4393 F       1  UNL1       -0.2017
     11 C          62.9988   85.1332   11.5582 C.ar    1  UNL1        0.0507
     12 C          63.4684   85.9698   12.7112 C.ar    1  UNL1        0.0816
     13 C          64.2236   89.0530   14.9448 C.ar    1  UNL1        0.0342
     14 C          65.4258   89.8914   14.6257 C.ar    1  UNL1        0.0039
     15 C          65.5965   91.2343   15.2717 C.ar    1  UNL1        0.0115
     16 C          64.5651   91.7390   16.2367 C.ar    1  UNL1        0.0577
     17 CL         64.7358   93.0819   16.8827 Cl      1  UNL1       -0.0822
     18 C          63.3629   90.9006   16.5558 C.ar    1  UNL1        0.0115
     19 C          63.1922   89.5576   15.9099 C.ar    1  UNL1        0.0039
     20 C          61.8327   88.1021   11.0181 C.3     1  UNL1        0.0297
     21 C          60.3804   88.3383   11.3097 C.3     1  UNL1        0.0024
     22 C          59.3404   87.9557   10.2988 C.3     1  UNL1        0.0001
     23 C          59.7529   87.3368    8.9960 C.3     1  UNL1        0.0000
     24 C          61.2051   87.1006    8.7044 C.3     1  UNL1        0.0001
     25 C          62.2451   87.4832    9.7154 C.3     1  UNL1        0.0024
     26 N          64.4470   90.3781   11.2006 N.am    1  UNL1       -0.2824
     27 C          63.3532   89.9034   12.1106 C.2     1  UNL1        0.2468
     28 O          62.9781   91.0836   12.9569 O.2     1  UNL1       -0.2727
     29 H          64.8495   89.7587   10.5498 H       1  UNL1        0.1549
     30 C          65.8886   94.6340   11.4453 C.ar    1  UNL1        0.0141
     31 C          66.1359   93.6915   12.5858 C.ar    1  UNL1        0.0024
     32 C          65.6553   92.2729   12.5042 C.ar    1  UNL1        0.0147
     33 C          64.9275   91.7967   11.2821 C.ar    1  UNL1        0.0503
     34 C          64.6802   92.7391   10.1416 C.ar    1  UNL1        0.0147
     35 C          65.1607   94.1577   10.2232 C.ar    1  UNL1        0.0024
     36 O          66.1316   96.8545   12.7720 O.co2   1  UNL1       -0.5446
     37 C          66.3691   96.0525   11.5269 C.2     1  UNL1        0.0729
     38 O          67.0872   96.6691   10.3632 O.co2   1  UNL1       -0.5446
@<TRIPOS>UNITY_ATOM_ATTR
36 1
charge -1
@<TRIPOS>BOND
     1    36    37   ar
     2    37    38   ar
     3    37    30    1
     4    30    31   ar
     5    31    32   ar
     6    32    33   ar
     7    33    26    1
     8    26    27   am
     9    27    28    2
    10    27     1    1
    11     1    20    1
    12    20    21    1
    13    21    22    1
    14    22    23    1
    15    23    24    1
    16    24    25    1
    17     1     2    1
    18     2     3   ar
    19     3    13    1
    20    13    14   ar
    21    14    15   ar
    22    15    16   ar
    23    16    17    1
    24    16    18   ar
    25    18    19   ar
    26     3     4   ar
    27     4     5   ar
    28     5     6   ar
    29     6     7   ar
    30     7     8    1
    31     7     9   ar
    32     9    10    1
    33     9    11   ar
    34    11    12   ar
    35    33    34   ar
    36    34    35   ar
    37    35    30   ar
    38    25    20    1
    39    12     2   ar
    40    19    13   ar
    41    12     5   ar
    42    26    29    1
@<TRIPOS>MOLECULE
*****
 38 42 0 0 0
SMALL
GASTEIGER

@<TRIPOS>ATOM
      1 C          63.4456   89.3605   13.0286 C.3     1  UNL1        0.1631
      2 N          63.6657   90.3844   11.9548 N.ar    1  UNL1       -0.3047
      3 C          62.9638   90.4377   10.6302 C.ar    1  UNL1        0.1441
      4 N          63.4907   91.6211    9.8738 N.ar    1  UNL1       -0.2267
      5 C          64.5182   92.2991   10.7309 C.ar    1  UNL1        0.1010
      6 C          65.3693   93.5136   10.5064 C.ar    1  UNL1        0.0526
      7 C          66.3285   93.9639   11.5680 C.ar    1  UNL1        0.1690
      8 F          67.1797   95.1785   11.3436 F       1  UNL1       -0.2017
      9 C          66.4367   93.1996   12.8542 C.ar    1  UNL1        0.1689
     10 F          67.3960   93.6499   13.9158 F       1  UNL1       -0.2017
     11 C          65.5856   91.9850   13.0787 C.ar    1  UNL1        0.0507
     12 C          64.6264   91.5347   12.0171 C.ar    1  UNL1        0.0816
     13 C          61.9186   89.4765   10.1469 C.ar    1  UNL1        0.0342
     14 C          62.3063   88.3302    9.2606 C.ar    1  UNL1        0.0039
     15 C          61.2611   87.3690    8.7773 C.ar    1  UNL1        0.0115
     16 C          59.8282   87.5541    9.1802 C.ar    1  UNL1        0.0577
     17 CL         58.7830   86.5929    8.6969 Cl      1  UNL1       -0.0822
     18 C          59.4405   88.7005   10.0665 C.ar    1  UNL1        0.0115
     19 C          60.4857   89.6617   10.5498 C.ar    1  UNL1        0.0039
     20 C          63.4881   89.7663   14.4720 C.3     1  UNL1        0.0297
     21 C          63.1281   88.7767   15.5403 C.3     1  UNL1        0.0024
     22 C          63.1706   89.1825   16.9837 C.3     1  UNL1        0.0001
     23 C          63.5732   90.5779   17.3589 C.3     1  UNL1        0.0000
     24 C          63.9333   91.5674   16.2907 C.3     1  UNL1        0.0001
     25 C          63.8908   91.1617   14.8473 C.3     1  UNL1        0.0024
     26 N          63.8965   86.8261   13.3808 N.am    1  UNL1       -0.2824
     27 C          63.1829   87.9306   12.6590 C.2     1  UNL1        0.2468
     28 O          62.2986   87.2608   11.6494 O.2     1  UNL1       -0.2727
     29 H          64.5373   87.0396   14.0971 H       1  UNL1        0.1549
     30 C          63.1084   82.5366   12.2721 C.ar    1  UNL1        0.0141
     31 C          63.6769   82.8707   13.6193 C.ar    1  UNL1        0.0024
     32 C          63.9396   84.3006   13.9889 C.ar    1  UNL1        0.0147
     33 C          63.6338   85.3963   13.0112 C.ar    1  UNL1        0.0503
     34 C          63.0653   85.0622   11.6639 C.ar    1  UNL1        0.0147
     35 C          62.8026   83.6324   11.2944 C.ar    1  UNL1        0.0024
     36 O          63.0038   80.6587   10.4797 O.co2   1  UNL1       -0.5446
     37 C          62.8457   81.1068   11.9024 C.2     1  UNL1        0.0729
     38 O          62.4249   80.1252   12.9556 O.co2   1  UNL1       -0.5446
@<TRIPOS>UNITY_ATOM_ATTR
36 1
charge -1
@<TRIPOS>BOND
     1    36    37   ar
     2    37    38   ar
     3    37    30    1
     4    30    31   ar
     5    31    32   ar
     6    32    33   ar
     7    33    26    1
     8    26    27   am
     9    27    28    2
    10    27     1    1
    11     1    20    1
    12    20    21    1
    13    21    22    1
    14    22    23    1
    15    23    24    1
    16    24    25    1
    17     1     2    1
    18     2     3   ar
    19     3    13    1
    20    13    14   ar
    21    14    15   ar
    22    15    16   ar
    23    16    17    1
    24    16    18   ar
    25    18    19   ar
    26     3     4   ar
    27     4     5   ar
    28     5     6   ar
    29     6     7   ar
    30     7     8    1
    31     7     9   ar
    32     9    10    1
    33     9    11   ar
    34    11    12   ar
    35    33    34   ar
    36    34    35   ar
    37    35    30   ar
    38    25    20    1
    39    12     2   ar
    40    19    13   ar
    41    12     5   ar
    42    26    29    1
@<TRIPOS>MOLECULE
*****
 38 42 0 0 0
SMALL
GASTEIGER

@<TRIPOS>ATOM
      1 C          63.4697   88.0878   13.7860 C.3     1  UNL1        0.1631
      2 N          63.7529   89.3541   13.0334 N.ar    1  UNL1       -0.3047
      3 C          63.1077   89.7787   11.7476 C.ar    1  UNL1        0.1441
      4 N          63.6871   91.1052   11.3542 N.ar    1  UNL1       -0.2267
      5 C          64.6905   91.5003   12.3968 C.ar    1  UNL1        0.1010
      6 C          65.5724   92.7058   12.5352 C.ar    1  UNL1        0.0526
      7 C          66.4949   92.8290   13.7115 C.ar    1  UNL1        0.1690
      8 F          67.3768   94.0345   13.8500 F       1  UNL1       -0.2017
      9 C          66.5356   91.7468   14.7494 C.ar    1  UNL1        0.1689
     10 F          67.4582   91.8700   15.9257 F       1  UNL1       -0.2017
     11 C          65.6537   90.5413   14.6110 C.ar    1  UNL1        0.0507
     12 C          64.7312   90.4181   13.4347 C.ar    1  UNL1        0.0816
     13 C          62.0659   89.0116   10.9886 C.ar    1  UNL1        0.0342
     14 C          60.6618   88.9352   11.5107 C.ar    1  UNL1        0.0039
     15 C          59.6200   88.1681   10.7516 C.ar    1  UNL1        0.0115
     16 C          59.9823   87.4774    9.4704 C.ar    1  UNL1        0.0577
     17 CL         58.9405   86.7103    8.7113 Cl      1  UNL1       -0.0822
     18 C          61.3864   87.5538    8.9482 C.ar    1  UNL1        0.0115
     19 C          62.4282   88.3209    9.7073 C.ar    1  UNL1        0.0039
     20 C          63.3083   88.1214   15.2768 C.3     1  UNL1        0.0297
     21 C          63.1803   89.4360   15.9880 C.3     1  UNL1        0.0024
     22 C          63.0189   89.4697   17.4789 C.3     1  UNL1        0.0001
     23 C          62.9855   88.1887   18.2587 C.3     1  UNL1        0.0000
     24 C          63.1135   86.8742   17.5476 C.3     1  UNL1        0.0001
     25 C          63.2749   86.8406   16.0567 C.3     1  UNL1        0.0024
     26 N          63.4245   85.4901   13.7960 N.am    1  UNL1       -0.2824
     27 C          63.3478   86.7878   13.0475 C.2     1  UNL1        0.2468
     28 O          63.1490   86.4227   11.6063 O.2     1  UNL1       -0.2727
     29 H          63.5547   85.4916   14.7718 H       1  UNL1        0.1549
     30 C          63.0589   81.5902   11.5807 C.ar    1  UNL1        0.0141
     31 C          63.0705   81.6026   13.0806 C.ar    1  UNL1        0.0024
     32 C          63.1923   82.9026   13.8190 C.ar    1  UNL1        0.0147
     33 C          63.3026   84.1902   13.0575 C.ar    1  UNL1        0.0503
     34 C          63.2910   84.1779   11.5576 C.ar    1  UNL1        0.0147
     35 C          63.1691   82.8779   10.8192 C.ar    1  UNL1        0.0024
     36 O          62.6147   79.0304   11.5897 O.co2   1  UNL1       -0.5446
     37 C          62.9370   80.2903   10.8422 C.2     1  UNL1        0.0729
     38 O          63.1374   80.2504    9.3562 O.co2   1  UNL1       -0.5446
@<TRIPOS>UNITY_ATOM_ATTR
36 1
charge -1
@<TRIPOS>BOND
     1    36    37   ar
     2    37    38   ar
     3    37    30    1
     4    30    31   ar
     5    31    32   ar
     6    32    33   ar
     7    33    26    1
     8    26    27   am
     9    27    28    2
    10    27     1    1
    11     1    20    1
    12    20    21    1
    13    21    22    1
    14    22    23    1
    15    23    24    1
    16    24    25    1
    17     1     2    1
    18     2     3   ar
    19     3    13    1
    20    13    14   ar
    21    14    15   ar
    22    15    16   ar
    23    16    17    1
    24    16    18   ar
    25    18    19   ar
    26     3     4   ar
    27     4     5   ar
    28     5     6   ar
    29     6     7   ar
    30     7     8    1
    31     7     9   ar
    32     9    10    1
    33     9    11   ar
    34    11    12   ar
    35    33    34   ar
    36    34    35   ar
    37    35    30   ar
    38    25    20    1
    39    12     2   ar
    40    19    13   ar
    41    12     5   ar
    42    26    29    1
