@<TRIPOS>MOLECULE
*****
 30 33 0 0 0
SMALL
GASTEIGER

@<TRIPOS>ATOM
      1 C          64.0688   87.8401   14.4238 C.ar    1  UNL1        0.0031
      2 C          64.4096   86.6480   15.2680 C.ar    1  UNL1        0.0207
      3 C          64.1849   85.2634   14.7362 C.ar    1  UNL1        0.0989
      4 N          63.6195   85.0711   13.3603 N.ar    1  UNL1       -0.2423
      5 C          63.2787   86.2633   12.5161 C.ar    1  UNL1        0.0989
      6 C          63.5034   87.6477   13.0478 C.ar    1  UNL1        0.0221
      7 C          63.1626   88.8399   12.2036 C.ar    1  UNL1        0.0363
      8 C          64.0739   90.0312   12.1854 C.ar    1  UNL1        0.0145
      9 C          63.7331   91.2233   11.3412 C.ar    1  UNL1        0.0579
     10 CL         64.6444   92.4146   11.3230 Cl      1  UNL1       -0.0822
     11 C          62.4809   91.2242   10.5153 C.ar    1  UNL1        0.0145
     12 C          61.5696   90.0329   10.5335 C.ar    1  UNL1        0.0378
     13 C          61.9104   88.8408   11.3777 C.ar    1  UNL1        0.1391
     14 O          60.9991   87.6495   11.3960 O.3     1  UNL1       -0.4706
     15 C          60.2590   87.2523   10.1532 C.3     1  UNL1        0.2320
     16 C          60.9498   86.4446    9.0947 C.ar    1  UNL1        0.0212
     17 C          60.2058   86.0364    7.8578 C.ar    1  UNL1       -0.0007
     18 C          60.8967   85.2287    6.7993 C.ar    1  UNL1       -0.0002
     19 C          62.3315   84.8293    6.9776 C.ar    1  UNL1       -0.0000
     20 C          63.0754   85.2376    8.2145 C.ar    1  UNL1       -0.0002
     21 C          62.3846   86.0452    9.2730 C.ar    1  UNL1       -0.0007
     22 C          65.7159   91.3968   15.0459 C.ar    1  UNL1        0.0140
     23 C          64.7428   91.9935   16.0190 C.ar    1  UNL1        0.0011
     24 C          63.5451   91.2058   16.4604 C.ar    1  UNL1        0.0000
     25 C          63.3204   89.8213   15.9287 C.ar    1  UNL1        0.0000
     26 C          64.2935   89.2246   14.9556 C.ar    1  UNL1        0.0001
     27 C          65.4912   90.0123   14.5142 C.ar    1  UNL1        0.0011
     28 O          67.5756   93.1384   15.5542 O.co2   1  UNL1       -0.5446
     29 C          66.9137   92.1845   14.6045 C.2     1  UNL1        0.0729
     30 O          67.4495   92.0184   13.2134 O.co2   1  UNL1       -0.5446
@<TRIPOS>UNITY_ATOM_ATTR
28 1
charge -1
@<TRIPOS>BOND
     1    28    29   ar
     2    29    30   ar
     3    29    22    1
     4    22    23   ar
     5    23    24   ar
     6    24    25   ar
     7    25    26   ar
     8    26     1    1
     9     1     2   ar
    10     2     3   ar
    11     3     4   ar
    12     4     5   ar
    13     5     6   ar
    14     6     7    1
    15     7     8   ar
    16     8     9   ar
    17     9    10    1
    18     9    11   ar
    19    11    12   ar
    20    12    13   ar
    21    13    14    1
    22    14    15    1
    23    15    16    1
    24    16    17   ar
    25    17    18   ar
    26    18    19   ar
    27    19    20   ar
    28    20    21   ar
    29    26    27   ar
    30    27    22   ar
    31     6     1   ar
    32    13     7   ar
    33    21    16   ar
@<TRIPOS>MOLECULE
*****
 30 33 0 0 0
SMALL
GASTEIGER

@<TRIPOS>ATOM
      1 C          61.9653   85.7448   10.2610 C.ar    1  UNL1        0.0031
      2 C          61.1236   85.7971    9.0206 C.ar    1  UNL1        0.0207
      3 C          60.4176   87.0665    8.6462 C.ar    1  UNL1        0.0989
      4 N          60.5534   88.2837    9.5123 N.ar    1  UNL1       -0.2423
      5 C          61.3952   88.2313   10.7528 C.ar    1  UNL1        0.0989
      6 C          62.1011   86.9619   11.1271 C.ar    1  UNL1        0.0221
      7 C          62.9428   86.9096   12.3677 C.ar    1  UNL1        0.0363
      8 C          63.2436   85.5903   13.0148 C.ar    1  UNL1        0.0145
      9 C          64.0853   85.5380   14.2552 C.ar    1  UNL1        0.0579
     10 CL         64.3862   84.2186   14.9024 Cl      1  UNL1       -0.0822
     11 C          64.6262   86.8050   14.8485 C.ar    1  UNL1        0.0145
     12 C          64.3254   88.1244   14.2014 C.ar    1  UNL1        0.0378
     13 C          63.4837   88.1766   12.9610 C.ar    1  UNL1        0.1391
     14 O          63.1828   89.4960   12.3138 O.3     1  UNL1       -0.4706
     15 C          63.5150   90.7737   13.0259 C.3     1  UNL1        0.2320
     16 C          64.5892   91.6734   12.4904 C.ar    1  UNL1        0.0212
     17 C          65.6643   92.1837   13.4034 C.ar    1  UNL1       -0.0007
     18 C          66.7385   93.0833   12.8678 C.ar    1  UNL1       -0.0002
     19 C          66.7376   93.4726   11.4193 C.ar    1  UNL1       -0.0000
     20 C          65.6625   92.9623   10.5062 C.ar    1  UNL1       -0.0002
     21 C          64.5883   92.0627   11.0417 C.ar    1  UNL1       -0.0007
     22 C          62.8320   82.3401   12.1068 C.ar    1  UNL1        0.0140
     23 C          64.0830   81.9365   11.3843 C.ar    1  UNL1        0.0011
     24 C          64.6282   82.8023   10.2874 C.ar    1  UNL1        0.0000
     25 C          63.9223   84.0717    9.9130 C.ar    1  UNL1        0.0000
     26 C          62.6713   84.4753   10.6355 C.ar    1  UNL1        0.0001
     27 C          62.1261   83.6095   11.7324 C.ar    1  UNL1        0.0011
     28 O          61.7699   82.0991   14.4655 O.co2   1  UNL1       -0.5446
     29 C          62.2869   81.4743   13.2037 C.2     1  UNL1        0.0729
     30 O          62.2588   79.9837   13.0388 O.co2   1  UNL1       -0.5446
@<TRIPOS>UNITY_ATOM_ATTR
28 1
charge -1
@<TRIPOS>BOND
     1    28    29   ar
     2    29    30   ar
     3    29    22    1
     4    22    23   ar
     5    23    24   ar
     6    24    25   ar
     7    25    26   ar
     8    26     1    1
     9     1     2   ar
    10     2     3   ar
    11     3     4   ar
    12     4     5   ar
    13     5     6   ar
    14     6     7    1
    15     7     8   ar
    16     8     9   ar
    17     9    10    1
    18     9    11   ar
    19    11    12   ar
    20    12    13   ar
    21    13    14    1
    22    14    15    1
    23    15    16    1
    24    16    17   ar
    25    17    18   ar
    26    18    19   ar
    27    19    20   ar
    28    20    21   ar
    29    26    27   ar
    30    27    22   ar
    31     6     1   ar
    32    13     7   ar
    33    21    16   ar
@<TRIPOS>MOLECULE
*****
 30 33 0 0 0
SMALL
GASTEIGER

@<TRIPOS>ATOM
      1 C          63.6201   85.3174   13.0363 C.ar    1  UNL1        0.0031
      2 C          64.3450   85.4764   14.3399 C.ar    1  UNL1        0.0207
      3 C          64.5839   86.8460   14.9031 C.ar    1  UNL1        0.0989
      4 N          64.0980   88.0566   14.1627 N.ar    1  UNL1       -0.2423
      5 C          63.3731   87.8976   12.8591 C.ar    1  UNL1        0.0989
      6 C          63.1341   86.5281   12.2959 C.ar    1  UNL1        0.0221
      7 C          62.4092   86.3691   10.9923 C.ar    1  UNL1        0.0363
      8 C          63.0291   85.5743    9.8815 C.ar    1  UNL1        0.0145
      9 C          62.3042   85.4153    8.5780 C.ar    1  UNL1        0.0579
     10 CL         62.9241   84.6205    7.4671 Cl      1  UNL1       -0.0822
     11 C          60.9594   86.0512    8.3853 C.ar    1  UNL1        0.0145
     12 C          60.3395   86.8460    9.4961 C.ar    1  UNL1        0.0378
     13 C          61.0644   87.0050   10.7996 C.ar    1  UNL1        0.1391
     14 O          60.4445   87.7998   11.9105 O.3     1  UNL1       -0.4706
     15 C          60.3480   89.2927   11.8012 C.3     1  UNL1        0.2320
     16 C          61.5766   90.1049   11.5172 C.ar    1  UNL1        0.0212
     17 C          61.9651   90.4070   10.1002 C.ar    1  UNL1       -0.0007
     18 C          63.1938   91.2193    9.8163 C.ar    1  UNL1       -0.0002
     19 C          64.0340   91.7294   10.9493 C.ar    1  UNL1       -0.0000
     20 C          63.6456   91.4273   12.3663 C.ar    1  UNL1       -0.0002
     21 C          62.4169   90.6151   12.6502 C.ar    1  UNL1       -0.0007
     22 C          62.3668   81.5669   12.7010 C.ar    1  UNL1        0.0140
     23 C          62.9033   81.2087   11.3468 C.ar    1  UNL1        0.0011
     24 C          63.6788   82.2201   10.5558 C.ar    1  UNL1        0.0000
     25 C          63.9177   83.5897   11.1190 C.ar    1  UNL1        0.0000
     26 C          63.3812   83.9478   12.4731 C.ar    1  UNL1        0.0001
     27 C          62.6057   82.9364   13.2641 C.ar    1  UNL1        0.0011
     28 O          60.3946   80.9837   14.2886 O.co2   1  UNL1       -0.5446
     29 C          61.5913   80.5555   13.4920 C.2     1  UNL1        0.0729
     30 O          62.0125   79.1159   13.4865 O.co2   1  UNL1       -0.5446
@<TRIPOS>UNITY_ATOM_ATTR
28 1
charge -1
@<TRIPOS>BOND
     1    28    29   ar
     2    29    30   ar
     3    29    22    1
     4    22    23   ar
     5    23    24   ar
     6    24    25   ar
     7    25    26   ar
     8    26     1    1
     9     1     2   ar
    10     2     3   ar
    11     3     4   ar
    12     4     5   ar
    13     5     6   ar
    14     6     7    1
    15     7     8   ar
    16     8     9   ar
    17     9    10    1
    18     9    11   ar
    19    11    12   ar
    20    12    13   ar
    21    13    14    1
    22    14    15    1
    23    15    16    1
    24    16    17   ar
    25    17    18   ar
    26    18    19   ar
    27    19    20   ar
    28    20    21   ar
    29    26    27   ar
    30    27    22   ar
    31     6     1   ar
    32    13     7   ar
    33    21    16   ar
@<TRIPOS>MOLECULE
*****
 30 33 0 0 0
SMALL
GASTEIGER

@<TRIPOS>ATOM
      1 C          66.5300   92.5624   13.8705 C.ar    1  UNL1        0.0031
      2 C          67.3491   93.2546   14.9192 C.ar    1  UNL1        0.0207
      3 C          66.9826   93.1192   16.3675 C.ar    1  UNL1        0.0989
      4 N          65.7971   92.2916   16.7670 N.ar    1  UNL1       -0.2423
      5 C          64.9780   91.5994   15.7182 C.ar    1  UNL1        0.0989
      6 C          65.3444   91.7348   14.2700 C.ar    1  UNL1        0.0221
      7 C          64.5253   91.0426   13.2211 C.ar    1  UNL1        0.0363
      8 C          64.2270   91.7350   11.9244 C.ar    1  UNL1        0.0145
      9 C          63.4080   91.0428   10.8757 C.ar    1  UNL1        0.0579
     10 CL         63.1096   91.7353    9.5789 Cl      1  UNL1       -0.0822
     11 C          62.8872   89.6581   11.1236 C.ar    1  UNL1        0.0145
     12 C          63.1855   88.9657   12.4203 C.ar    1  UNL1        0.0378
     13 C          64.0045   89.6579   13.4691 C.ar    1  UNL1        0.1391
     14 O          64.3029   88.9655   14.7659 O.3     1  UNL1       -0.4706
     15 C          64.9263   87.6012   14.7615 C.3     1  UNL1        0.2320
     16 C          64.0609   86.3808   14.8691 C.ar    1  UNL1        0.0212
     17 C          63.7976   85.5387   13.6560 C.ar    1  UNL1       -0.0007
     18 C          62.9322   84.3182   13.7636 C.ar    1  UNL1       -0.0002
     19 C          62.3300   83.9399   15.0843 C.ar    1  UNL1       -0.0000
     20 C          62.5933   84.7819   16.2974 C.ar    1  UNL1       -0.0002
     21 C          63.4587   86.0023   16.1898 C.ar    1  UNL1       -0.0007
     22 C          66.7619   94.0029   10.1798 C.ar    1  UNL1        0.0140
     23 C          67.6292   92.9685    9.5258 C.ar    1  UNL1        0.0011
     24 C          68.1302   91.7988   10.3200 C.ar    1  UNL1        0.0000
     25 C          67.7638   91.6634   11.7682 C.ar    1  UNL1        0.0000
     26 C          66.8964   92.6977   12.4222 C.ar    1  UNL1        0.0001
     27 C          66.3955   93.8675   11.6280 C.ar    1  UNL1        0.0011
     28 O          66.8007   95.4318    8.0103 O.co2   1  UNL1       -0.5446
     29 C          66.2609   95.1726    9.3856 C.2     1  UNL1        0.0729
     30 O          65.2202   96.0832    9.9667 O.co2   1  UNL1       -0.5446
@<TRIPOS>UNITY_ATOM_ATTR
28 1
charge -1
@<TRIPOS>BOND
     1    28    29   ar
     2    29    30   ar
     3    29    22    1
     4    22    23   ar
     5    23    24   ar
     6    24    25   ar
     7    25    26   ar
     8    26     1    1
     9     1     2   ar
    10     2     3   ar
    11     3     4   ar
    12     4     5   ar
    13     5     6   ar
    14     6     7    1
    15     7     8   ar
    16     8     9   ar
    17     9    10    1
    18     9    11   ar
    19    11    12   ar
    20    12    13   ar
    21    13    14    1
    22    14    15    1
    23    15    16    1
    24    16    17   ar
    25    17    18   ar
    26    18    19   ar
    27    19    20   ar
    28    20    21   ar
    29    26    27   ar
    30    27    22   ar
    31     6     1   ar
    32    13     7   ar
    33    21    16   ar
@<TRIPOS>MOLECULE
*****
 30 33 0 0 0
SMALL
GASTEIGER

@<TRIPOS>ATOM
      1 C          61.3720   88.9524   10.6753 C.ar    1  UNL1        0.0031
      2 C          61.2068   90.3078   11.2961 C.ar    1  UNL1        0.0207
      3 C          62.0613   90.7079   12.4623 C.ar    1  UNL1        0.0989
      4 N          63.0809   89.7524   13.0076 N.ar    1  UNL1       -0.2423
      5 C          63.2460   88.3968   12.3867 C.ar    1  UNL1        0.0989
      6 C          62.3916   87.9969   11.2206 C.ar    1  UNL1        0.0221
      7 C          62.5567   86.6414   10.5998 C.ar    1  UNL1        0.0363
      8 C          62.6926   86.5095    9.1118 C.ar    1  UNL1        0.0145
      9 C          62.8578   85.1540    8.4910 C.ar    1  UNL1        0.0579
     10 CL         62.9937   85.0221    7.0030 Cl      1  UNL1       -0.0822
     11 C          62.8870   83.9304    9.3582 C.ar    1  UNL1        0.0145
     12 C          62.7510   84.0623   10.8462 C.ar    1  UNL1        0.0378
     13 C          62.5859   85.4178   11.4670 C.ar    1  UNL1        0.1391
     14 O          62.4500   85.5497   12.9550 O.3     1  UNL1       -0.4706
     15 C          63.2298   84.6452   13.8625 C.3     1  UNL1        0.2320
     16 C          62.9805   83.1662   13.8422 C.ar    1  UNL1        0.0212
     17 C          61.6380   82.6264   14.2375 C.ar    1  UNL1       -0.0007
     18 C          61.3888   81.1473   14.2172 C.ar    1  UNL1       -0.0002
     19 C          62.4820   80.2082   13.8016 C.ar    1  UNL1       -0.0000
     20 C          63.8245   80.7480   13.4063 C.ar    1  UNL1       -0.0002
     21 C          64.0738   82.2269   13.4266 C.ar    1  UNL1       -0.0007
     22 C          59.4662   89.1005    7.1973 C.ar    1  UNL1        0.0140
     23 C          58.8086   87.7525    7.1768 C.ar    1  UNL1        0.0011
     24 C          59.0055   86.8044    8.3224 C.ar    1  UNL1        0.0000
     25 C          59.8599   87.2044    9.4886 C.ar    1  UNL1        0.0000
     26 C          60.5175   88.5524    9.5091 C.ar    1  UNL1        0.0001
     27 C          60.3206   89.5004    8.3635 C.ar    1  UNL1        0.0011
     28 O          60.4526   90.5344    5.2684 O.co2   1  UNL1       -0.5446
     29 C          59.2693   90.0485    6.0517 C.2     1  UNL1        0.0729
     30 O          57.8890   90.5107    5.6894 O.co2   1  UNL1       -0.5446
@<TRIPOS>UNITY_ATOM_ATTR
28 1
charge -1
@<TRIPOS>BOND
     1    28    29   ar
     2    29    30   ar
     3    29    22    1
     4    22    23   ar
     5    23    24   ar
     6    24    25   ar
     7    25    26   ar
     8    26     1    1
     9     1     2   ar
    10     2     3   ar
    11     3     4   ar
    12     4     5   ar
    13     5     6   ar
    14     6     7    1
    15     7     8   ar
    16     8     9   ar
    17     9    10    1
    18     9    11   ar
    19    11    12   ar
    20    12    13   ar
    21    13    14    1
    22    14    15    1
    23    15    16    1
    24    16    17   ar
    25    17    18   ar
    26    18    19   ar
    27    19    20   ar
    28    20    21   ar
    29    26    27   ar
    30    27    22   ar
    31     6     1   ar
    32    13     7   ar
    33    21    16   ar
@<TRIPOS>MOLECULE
*****
 30 33 0 0 0
SMALL
GASTEIGER

@<TRIPOS>ATOM
      1 C          62.6684   88.4141   11.6741 C.ar    1  UNL1        0.0031
      2 C          61.9139   87.8523   10.5058 C.ar    1  UNL1        0.0207
      3 C          61.3057   88.7753    9.4917 C.ar    1  UNL1        0.0989
      4 N          61.4522   90.2601    9.6460 N.ar    1  UNL1       -0.2423
      5 C          62.2068   90.8219   10.8143 C.ar    1  UNL1        0.0989
      6 C          62.8148   89.8989   11.8284 C.ar    1  UNL1        0.0221
      7 C          63.5694   90.4608   12.9967 C.ar    1  UNL1        0.0363
      8 C          63.1354   90.1370   14.3956 C.ar    1  UNL1        0.0145
      9 C          63.8900   90.6988   15.5639 C.ar    1  UNL1        0.0579
     10 CL         63.4560   90.3751   16.9628 Cl      1  UNL1       -0.0822
     11 C          65.0785   91.5844   15.3333 C.ar    1  UNL1        0.0145
     12 C          65.5125   91.9082   13.9345 C.ar    1  UNL1        0.0378
     13 C          64.7579   91.3463   12.7662 C.ar    1  UNL1        0.1391
     14 O          65.1919   91.6701   11.3672 O.3     1  UNL1       -0.4706
     15 C          66.5481   92.2617   11.1207 C.3     1  UNL1        0.2320
     16 C          66.6733   93.6819   10.6545 C.ar    1  UNL1        0.0212
     17 C          66.1057   94.7961   11.4830 C.ar    1  UNL1       -0.0007
     18 C          66.2309   96.2163   11.0168 C.ar    1  UNL1       -0.0002
     19 C          66.9237   96.5223    9.7221 C.ar    1  UNL1       -0.0000
     20 C          67.4913   95.4082    8.8935 C.ar    1  UNL1       -0.0002
     21 C          67.3661   93.9880    9.3597 C.ar    1  UNL1       -0.0007
     22 C          63.6233   85.0930   13.6256 C.ar    1  UNL1        0.0140
     23 C          64.4927   85.6451   14.7162 C.ar    1  UNL1        0.0011
     24 C          64.7540   87.1202   14.7927 C.ar    1  UNL1        0.0000
     25 C          64.1459   88.0432   13.7787 C.ar    1  UNL1        0.0000
     26 C          63.2765   87.4911   12.6881 C.ar    1  UNL1        0.0001
     27 C          63.0152   86.0160   12.6116 C.ar    1  UNL1        0.0011
     28 O          63.7071   82.7339   14.7107 O.co2   1  UNL1       -0.5446
     29 C          63.3619   83.6179   13.5491 C.2     1  UNL1        0.0729
     30 O          62.7554   83.0269   12.3111 O.co2   1  UNL1       -0.5446
@<TRIPOS>UNITY_ATOM_ATTR
28 1
charge -1
@<TRIPOS>BOND
     1    28    29   ar
     2    29    30   ar
     3    29    22    1
     4    22    23   ar
     5    23    24   ar
     6    24    25   ar
     7    25    26   ar
     8    26     1    1
     9     1     2   ar
    10     2     3   ar
    11     3     4   ar
    12     4     5   ar
    13     5     6   ar
    14     6     7    1
    15     7     8   ar
    16     8     9   ar
    17     9    10    1
    18     9    11   ar
    19    11    12   ar
    20    12    13   ar
    21    13    14    1
    22    14    15    1
    23    15    16    1
    24    16    17   ar
    25    17    18   ar
    26    18    19   ar
    27    19    20   ar
    28    20    21   ar
    29    26    27   ar
    30    27    22   ar
    31     6     1   ar
    32    13     7   ar
    33    21    16   ar
@<TRIPOS>MOLECULE
*****
 30 33 0 0 0
SMALL
GASTEIGER

@<TRIPOS>ATOM
      1 C          62.3619   86.2233   10.2584 C.ar    1  UNL1        0.0031
      2 C          62.9588   85.1758    9.3661 C.ar    1  UNL1        0.0207
      3 C          62.4760   85.0300    7.9533 C.ar    1  UNL1        0.0989
      4 N          61.3962   85.9319    7.4330 N.ar    1  UNL1       -0.2423
      5 C          60.7993   86.9795    8.3254 C.ar    1  UNL1        0.0989
      6 C          61.2821   87.1252    9.7381 C.ar    1  UNL1        0.0221
      7 C          60.6852   88.1728   10.6305 C.ar    1  UNL1        0.0363
      8 C          59.4737   87.8537   11.4553 C.ar    1  UNL1        0.0145
      9 C          58.8768   88.9013   12.3476 C.ar    1  UNL1        0.0579
     10 CL         57.6652   88.5822   13.1725 Cl      1  UNL1       -0.0822
     11 C          59.4915   90.2679   12.4152 C.ar    1  UNL1        0.0145
     12 C          60.7030   90.5869   11.5904 C.ar    1  UNL1        0.0378
     13 C          61.2999   89.5394   10.6980 C.ar    1  UNL1        0.1391
     14 O          62.5115   89.8584    9.8731 O.3     1  UNL1       -0.4706
     15 C          63.0903   91.2420    9.8946 C.3     1  UNL1        0.2320
     16 C          64.1350   91.6023   10.9089 C.ar    1  UNL1        0.0212
     17 C          63.9680   91.1824   12.3392 C.ar    1  UNL1       -0.0007
     18 C          65.0128   91.5426   13.3535 C.ar    1  UNL1       -0.0002
     19 C          66.2245   92.3228   12.9374 C.ar    1  UNL1       -0.0000
     20 C          66.3915   92.7428   11.5071 C.ar    1  UNL1       -0.0002
     21 C          65.3468   92.3825   10.4929 C.ar    1  UNL1       -0.0007
     22 C          63.3433   85.3252   13.9974 C.ar    1  UNL1        0.0140
     23 C          63.8104   86.6604   14.4964 C.ar    1  UNL1        0.0011
     24 C          63.7946   87.8499   13.5827 C.ar    1  UNL1        0.0000
     25 C          63.3118   87.7042   12.1701 C.ar    1  UNL1        0.0000
     26 C          62.8448   86.3690   11.6711 C.ar    1  UNL1        0.0001
     27 C          62.8605   85.1795   12.5848 C.ar    1  UNL1        0.0011
     28 O          64.3080   83.0033   14.6518 O.co2   1  UNL1       -0.5446
     29 C          63.3591   84.1356   14.9111 C.2     1  UNL1        0.0729
     30 O          62.4259   84.0785   16.0840 O.co2   1  UNL1       -0.5446
@<TRIPOS>UNITY_ATOM_ATTR
28 1
charge -1
@<TRIPOS>BOND
     1    28    29   ar
     2    29    30   ar
     3    29    22    1
     4    22    23   ar
     5    23    24   ar
     6    24    25   ar
     7    25    26   ar
     8    26     1    1
     9     1     2   ar
    10     2     3   ar
    11     3     4   ar
    12     4     5   ar
    13     5     6   ar
    14     6     7    1
    15     7     8   ar
    16     8     9   ar
    17     9    10    1
    18     9    11   ar
    19    11    12   ar
    20    12    13   ar
    21    13    14    1
    22    14    15    1
    23    15    16    1
    24    16    17   ar
    25    17    18   ar
    26    18    19   ar
    27    19    20   ar
    28    20    21   ar
    29    26    27   ar
    30    27    22   ar
    31     6     1   ar
    32    13     7   ar
    33    21    16   ar
@<TRIPOS>MOLECULE
*****
 30 33 0 0 0
SMALL
GASTEIGER

@<TRIPOS>ATOM
      1 C          64.3840   91.2934   14.3371 C.ar    1  UNL1        0.0031
      2 C          64.8219   92.0509   15.5554 C.ar    1  UNL1        0.0207
      3 C          64.2824   91.6782   16.9045 C.ar    1  UNL1        0.0989
      4 N          63.3049   90.5479   17.0352 N.ar    1  UNL1       -0.2423
      5 C          62.8670   89.7904   15.8168 C.ar    1  UNL1        0.0989
      6 C          63.4065   90.1632   14.4678 C.ar    1  UNL1        0.0221
      7 C          62.9686   89.4057   13.2494 C.ar    1  UNL1        0.0363
      8 C          62.0109   90.0330   12.2802 C.ar    1  UNL1        0.0145
      9 C          61.5730   89.2755   11.0619 C.ar    1  UNL1        0.0579
     10 CL         60.6153   89.9028   10.0926 Cl      1  UNL1       -0.0822
     11 C          62.0928   87.8906   10.8127 C.ar    1  UNL1        0.0145
     12 C          63.0504   87.2633   11.7819 C.ar    1  UNL1        0.0378
     13 C          63.4883   88.0208   13.0002 C.ar    1  UNL1        0.1391
     14 O          64.4460   87.3935   13.9695 O.3     1  UNL1       -0.4706
     15 C          63.9574   86.3686   14.9496 C.3     1  UNL1        0.2320
     16 C          63.6871   84.9650   14.4949 C.ar    1  UNL1        0.0212
     17 C          62.5409   84.1945   15.0803 C.ar    1  UNL1       -0.0007
     18 C          62.2706   82.7908   14.6255 C.ar    1  UNL1       -0.0002
     19 C          63.1466   82.1576   13.5855 C.ar    1  UNL1       -0.0000
     20 C          64.2929   82.9281   13.0002 C.ar    1  UNL1       -0.0002
     21 C          64.5631   84.3317   13.4549 C.ar    1  UNL1       -0.0007
     22 C          66.9449   92.1147   11.4186 C.ar    1  UNL1        0.0140
     23 C          66.0026   92.4116   10.2899 C.ar    1  UNL1        0.0011
     24 C          64.5208   92.3357   10.5102 C.ar    1  UNL1        0.0000
     25 C          63.9813   91.9630   11.8593 C.ar    1  UNL1        0.0000
     26 C          64.9235   91.6661   12.9880 C.ar    1  UNL1        0.0001
     27 C          66.4053   91.7420   12.7676 C.ar    1  UNL1        0.0011
     28 O          69.3687   91.7116   12.2628 O.co2   1  UNL1       -0.5446
     29 C          68.4266   92.1905   11.1983 C.2     1  UNL1        0.0729
     30 O          68.9664   92.7453    9.9135 O.co2   1  UNL1       -0.5446
@<TRIPOS>UNITY_ATOM_ATTR
28 1
charge -1
@<TRIPOS>BOND
     1    28    29   ar
     2    29    30   ar
     3    29    22    1
     4    22    23   ar
     5    23    24   ar
     6    24    25   ar
     7    25    26   ar
     8    26     1    1
     9     1     2   ar
    10     2     3   ar
    11     3     4   ar
    12     4     5   ar
    13     5     6   ar
    14     6     7    1
    15     7     8   ar
    16     8     9   ar
    17     9    10    1
    18     9    11   ar
    19    11    12   ar
    20    12    13   ar
    21    13    14    1
    22    14    15    1
    23    15    16    1
    24    16    17   ar
    25    17    18   ar
    26    18    19   ar
    27    19    20   ar
    28    20    21   ar
    29    26    27   ar
    30    27    22   ar
    31     6     1   ar
    32    13     7   ar
    33    21    16   ar
@<TRIPOS>MOLECULE
*****
 30 33 0 0 0
SMALL
GASTEIGER

@<TRIPOS>ATOM
      1 C          62.4625   86.1230   10.2872 C.ar    1  UNL1        0.0031
      2 C          63.0385   85.0834    9.3722 C.ar    1  UNL1        0.0207
      3 C          62.5922   85.0129    7.9418 C.ar    1  UNL1        0.0989
      4 N          61.5699   85.9821    7.4265 N.ar    1  UNL1       -0.2423
      5 C          60.9938   87.0218    8.3416 C.ar    1  UNL1        0.0989
      6 C          61.4401   87.0922    9.7719 C.ar    1  UNL1        0.0221
      7 C          60.8641   88.1319   10.6870 C.ar    1  UNL1        0.0363
      8 C          59.6170   87.8369   11.4666 C.ar    1  UNL1        0.0145
      9 C          59.0410   88.8765   12.3816 C.ar    1  UNL1        0.0579
     10 CL         57.7939   88.5815   13.1613 Cl      1  UNL1       -0.0822
     11 C          59.7121   90.2112   12.5171 C.ar    1  UNL1        0.0145
     12 C          60.9591   90.5062   11.7375 C.ar    1  UNL1        0.0378
     13 C          61.5351   89.4666   10.8225 C.ar    1  UNL1        0.1391
     14 O          62.7822   89.7616   10.0428 O.3     1  UNL1       -0.4706
     15 C          63.2384   91.1795    9.8661 C.3     1  UNL1        0.2320
     16 C          64.3052   91.7410   10.7586 C.ar    1  UNL1        0.0212
     17 C          65.4527   92.5047   10.1671 C.ar    1  UNL1       -0.0007
     18 C          66.5196   93.0661   11.0598 C.ar    1  UNL1       -0.0002
     19 C          66.4389   92.8638   12.5438 C.ar    1  UNL1       -0.0000
     20 C          65.2914   92.1000   13.1353 C.ar    1  UNL1       -0.0002
     21 C          64.2246   91.5386   12.2428 C.ar    1  UNL1       -0.0007
     22 C          63.6070   87.5960   13.7901 C.ar    1  UNL1        0.0140
     23 C          63.8013   86.3346   14.5782 C.ar    1  UNL1        0.0011
     24 C          63.5493   85.0027   13.9359 C.ar    1  UNL1        0.0000
     25 C          63.1030   84.9321   12.5056 C.ar    1  UNL1        0.0000
     26 C          62.9087   86.1935   11.7176 C.ar    1  UNL1        0.0001
     27 C          63.1607   87.5255   12.3598 C.ar    1  UNL1        0.0011
     28 O          65.2620   89.3564   14.7449 O.co2   1  UNL1       -0.5446
     29 C          63.8590   88.9279   14.4324 C.2     1  UNL1        0.0729
     30 O          62.7079   89.8314   14.7620 O.co2   1  UNL1       -0.5446
@<TRIPOS>UNITY_ATOM_ATTR
28 1
charge -1
@<TRIPOS>BOND
     1    28    29   ar
     2    29    30   ar
     3    29    22    1
     4    22    23   ar
     5    23    24   ar
     6    24    25   ar
     7    25    26   ar
     8    26     1    1
     9     1     2   ar
    10     2     3   ar
    11     3     4   ar
    12     4     5   ar
    13     5     6   ar
    14     6     7    1
    15     7     8   ar
    16     8     9   ar
    17     9    10    1
    18     9    11   ar
    19    11    12   ar
    20    12    13   ar
    21    13    14    1
    22    14    15    1
    23    15    16    1
    24    16    17   ar
    25    17    18   ar
    26    18    19   ar
    27    19    20   ar
    28    20    21   ar
    29    26    27   ar
    30    27    22   ar
    31     6     1   ar
    32    13     7   ar
    33    21    16   ar
