@<TRIPOS>MOLECULE
*****
 36 39 0 0 0
SMALL
GASTEIGER

@<TRIPOS>ATOM
      1 C          64.1568   86.4166   15.5094 C.ar    1  UNL1        0.0611
      2 C          63.3365   86.0344   16.7056 C.ar    1  UNL1        0.1037
      3 N          62.7685   87.2898   17.2984 N.ar    1  UNL1       -0.2269
      4 C          63.2379   88.4479   16.4686 C.ar    1  UNL1        0.1407
      5 N          62.9949   89.9241   16.5770 N.ar    1  UNL1       -0.3374
      6 C          63.6099   90.8606   15.5797 C.ar    1  UNL1        0.0735
      7 C          64.4679   90.3209   14.4740 C.ar    1  UNL1        0.0201
      8 C          64.7110   88.8447   14.3656 C.ar    1  UNL1        0.0047
      9 C          64.0960   87.9082   15.3629 C.ar    1  UNL1        0.0386
     10 H          62.4318   90.2783   17.3027 H       1  UNL1        0.1674
     11 C          65.0829   91.2575   13.4767 C.ar    1  UNL1        0.0399
     12 C          66.3922   91.9232   13.7811 C.ar    1  UNL1        0.1034
     13 N          67.0072   92.8598   12.7838 N.ar    1  UNL1       -0.2121
     14 C          66.3129   93.1306   11.4820 C.ar    1  UNL1        0.2203
     15 N          65.0036   92.4649   11.1776 N.ar    1  UNL1       -0.2121
     16 C          64.3887   91.5284   12.1749 C.ar    1  UNL1        0.1034
     17 N          66.9278   94.0672   10.4847 N.pl3   1  UNL1       -0.2747
     18 C          67.7632   93.5252    9.3629 C.3     1  UNL1        0.1151
     19 C          66.7074   95.5457   10.6091 C.3     1  UNL1        0.1151
     20 C          64.9065   85.4729   14.6164 C.2     1  UNL1        0.1994
     21 O          66.4034   85.4058   14.6842 O.2     1  UNL1       -0.2864
     22 C          62.4895   84.3321   11.6827 C.ar    1  UNL1        0.0919
     23 C          62.6646   82.8432   11.7339 C.ar    1  UNL1        0.0181
     24 C          63.5870   82.2309   12.7460 C.ar    1  UNL1        0.0016
     25 C          64.3343   83.1074   13.7068 C.ar    1  UNL1        0.0055
     26 C          64.1592   84.5963   13.6556 C.ar    1  UNL1        0.0677
     27 C          63.2368   85.2086   12.6435 C.ar    1  UNL1        0.1576
     28 F          63.0618   86.6975   12.5923 F       1  UNL1       -0.2027
     29 N          61.5671   84.9444   10.6706 N.pl3   1  UNL1       -0.2166
     30 H          60.7581   84.4609   10.3858 H       1  UNL1        0.1734
     31 S          61.8773   86.2932   10.0924 S.O2    1  UNL1        0.0540
     32 O          62.9457   85.6805    9.2362 O.2     1  UNL1       -0.1545
     33 O          60.8089   86.9059   10.9486 O.2     1  UNL1       -0.1545
     34 C          62.1874   87.6421    9.5143 C.3     1  UNL1        0.1724
     35 C          61.7217   90.1440   10.0378 C.3     1  UNL1        0.0019
     36 C          62.3359   88.8296   10.4186 C.3     1  UNL1        0.0273
@<TRIPOS>BOND
     1    35    36    1
     2    36    34    1
     3    34    31    1
     4    31    32    2
     5    31    33    2
     6    31    29    1
     7    29    22    1
     8    22    23   ar
     9    23    24   ar
    10    24    25   ar
    11    25    26   ar
    12    26    20    1
    13    20    21    2
    14    20     1    1
    15     1     2   ar
    16     2     3   ar
    17     3     4   ar
    18     4     5   ar
    19     5     6   ar
    20     6     7   ar
    21     7    11    1
    22    11    12   ar
    23    12    13   ar
    24    13    14   ar
    25    14    17    1
    26    17    18    1
    27    17    19    1
    28    14    15   ar
    29    15    16   ar
    30     7     8   ar
    31     8     9   ar
    32    26    27   ar
    33    27    28    1
    34    27    22   ar
    35     9     1   ar
    36     9     4    1
    37    16    11   ar
    38    29    30    1
    39     5    10    1
@<TRIPOS>MOLECULE
*****
 36 39 0 0 0
SMALL
GASTEIGER

@<TRIPOS>ATOM
      1 C          61.3982   86.4371    8.9431 C.ar    1  UNL1        0.0611
      2 C          60.0271   86.2865    8.3537 C.ar    1  UNL1        0.1037
      3 N          59.2270   87.4997    8.7252 N.ar    1  UNL1       -0.2269
      4 C          60.1036   88.4001    9.5443 C.ar    1  UNL1        0.1407
      5 N          59.8533   89.7331   10.1849 N.ar    1  UNL1       -0.3374
      6 C          60.9449   90.4094   10.9601 C.ar    1  UNL1        0.0735
      7 C          62.2868   89.7527   11.0947 C.ar    1  UNL1        0.0201
      8 C          62.5371   88.4197   10.4541 C.ar    1  UNL1        0.0047
      9 C          61.4455   87.7434    9.6789 C.ar    1  UNL1        0.0386
     10 H          58.9726   90.1641   10.0965 H       1  UNL1        0.1674
     11 C          63.3784   90.4291   11.8700 C.ar    1  UNL1        0.0399
     12 C          64.0885   91.6147   11.2869 C.ar    1  UNL1        0.1034
     13 N          65.1801   92.2911   12.0621 N.ar    1  UNL1       -0.2121
     14 C          65.5616   91.7818   13.4205 C.ar    1  UNL1        0.2203
     15 N          64.8515   90.5961   14.0035 N.ar    1  UNL1       -0.2121
     16 C          63.7599   89.9198   13.2283 C.ar    1  UNL1        0.1034
     17 N          66.6531   92.4581   14.1957 N.pl3   1  UNL1       -0.2747
     18 C          66.7732   93.9531   14.1734 C.3     1  UNL1        0.1151
     19 C          67.6246   91.6394   14.9933 C.3     1  UNL1        0.1151
     20 C          62.5243   85.4541    8.8185 C.2     1  UNL1        0.1994
     21 O          63.1807   85.2301    7.4886 O.2     1  UNL1       -0.2864
     22 C          62.8058   84.1583   12.5591 C.ar    1  UNL1        0.0919
     23 C          63.9333   83.1768   12.4350 C.ar    1  UNL1        0.0181
     24 C          64.5911   82.9544   11.1054 C.ar    1  UNL1        0.0016
     25 C          64.1215   83.7134    9.8999 C.ar    1  UNL1        0.0055
     26 C          62.9940   84.6950   10.0240 C.ar    1  UNL1        0.0677
     27 C          62.3362   84.9174   11.3536 C.ar    1  UNL1        0.1576
     28 F          61.2087   85.8989   11.4777 F       1  UNL1       -0.2027
     29 N          62.1480   84.3808   13.8887 N.pl3   1  UNL1       -0.2166
     30 H          61.1998   84.1474   14.0140 H       1  UNL1        0.1734
     31 S          62.9350   84.9587   15.0274 S.O2    1  UNL1        0.0540
     32 O          63.4307   86.0531   14.1294 O.2     1  UNL1       -0.1545
     33 O          62.4392   83.8643   15.9255 O.2     1  UNL1       -0.1545
     34 C          63.7218   85.5366   16.1662 C.3     1  UNL1        0.1724
     35 C          62.9418   87.7619   17.2570 C.3     1  UNL1        0.0019
     36 C          63.0165   86.2639   17.2724 C.3     1  UNL1        0.0273
@<TRIPOS>BOND
     1    35    36    1
     2    36    34    1
     3    34    31    1
     4    31    32    2
     5    31    33    2
     6    31    29    1
     7    29    22    1
     8    22    23   ar
     9    23    24   ar
    10    24    25   ar
    11    25    26   ar
    12    26    20    1
    13    20    21    2
    14    20     1    1
    15     1     2   ar
    16     2     3   ar
    17     3     4   ar
    18     4     5   ar
    19     5     6   ar
    20     6     7   ar
    21     7    11    1
    22    11    12   ar
    23    12    13   ar
    24    13    14   ar
    25    14    17    1
    26    17    18    1
    27    17    19    1
    28    14    15   ar
    29    15    16   ar
    30     7     8   ar
    31     8     9   ar
    32    26    27   ar
    33    27    28    1
    34    27    22   ar
    35     9     1   ar
    36     9     4    1
    37    16    11   ar
    38    29    30    1
    39     5    10    1
@<TRIPOS>MOLECULE
*****
 36 39 0 0 0
SMALL
GASTEIGER

@<TRIPOS>ATOM
      1 C          61.5203   86.4290    9.2716 C.ar    1  UNL1        0.0611
      2 C          60.2605   86.2638    8.4743 C.ar    1  UNL1        0.1037
      3 N          59.5276   87.5724    8.4891 N.ar    1  UNL1       -0.2269
      4 C          60.3345   88.5465    9.2955 C.ar    1  UNL1        0.1407
      5 N          60.1068   89.9856    9.6519 N.ar    1  UNL1       -0.3374
      6 C          61.1107   90.7180   10.4919 C.ar    1  UNL1        0.0735
      7 C          62.3423   90.0113   10.9755 C.ar    1  UNL1        0.0201
      8 C          62.5699   88.5722   10.6191 C.ar    1  UNL1        0.0047
      9 C          61.5660   87.8398    9.7791 C.ar    1  UNL1        0.0386
     10 H          59.2985   90.4494    9.3345 H       1  UNL1        0.1674
     11 C          63.3463   90.7439   11.8155 C.ar    1  UNL1        0.0399
     12 C          63.4095   90.4977   13.2938 C.ar    1  UNL1        0.1034
     13 N          64.4135   91.2302   14.1339 N.ar    1  UNL1       -0.2121
     14 C          65.3541   92.2089   13.4955 C.ar    1  UNL1        0.2203
     15 N          65.2908   92.4550   12.0172 N.ar    1  UNL1       -0.2121
     16 C          64.2869   91.7225   11.1772 C.ar    1  UNL1        0.1034
     17 N          66.3580   92.9414   14.3355 N.pl3   1  UNL1       -0.2747
     18 C          66.9354   92.2869   15.5554 C.3     1  UNL1        0.1151
     19 C          66.7845   94.3283   13.9555 C.3     1  UNL1        0.1151
     20 C          62.5531   85.3695    9.5180 C.2     1  UNL1        0.1994
     21 O          63.2359   84.7039    8.3602 O.2     1  UNL1       -0.2864
     22 C          63.4958   83.1400   12.6630 C.ar    1  UNL1        0.0919
     23 C          63.6030   84.1876   13.7312 C.ar    1  UNL1        0.0181
     24 C          63.3603   85.6291   13.3950 C.ar    1  UNL1        0.0016
     25 C          63.0103   86.0231   11.9907 C.ar    1  UNL1        0.0055
     26 C          62.9031   84.9755   10.9225 C.ar    1  UNL1        0.0677
     27 C          63.1459   83.5340   11.2587 C.ar    1  UNL1        0.1576
     28 F          63.0387   82.4864   10.1904 F       1  UNL1       -0.2027
     29 N          63.7386   81.6985   12.9992 N.pl3   1  UNL1       -0.2166
     30 H          64.6494   81.3280   12.9492 H       1  UNL1        0.1734
     31 S          62.5937   80.8214   13.4116 S.O2    1  UNL1        0.0540
     32 O          62.7219   80.0518   12.1305 O.2     1  UNL1       -0.1545
     33 O          62.4656   81.5911   14.6927 O.2     1  UNL1       -0.1545
     34 C          61.4489   79.9445   13.8241 C.3     1  UNL1        0.1724
     35 C          58.9387   79.6773   14.4387 C.3     1  UNL1        0.0019
     36 C          60.1270   80.5561   14.1829 C.3     1  UNL1        0.0273
@<TRIPOS>BOND
     1    35    36    1
     2    36    34    1
     3    34    31    1
     4    31    32    2
     5    31    33    2
     6    31    29    1
     7    29    22    1
     8    22    23   ar
     9    23    24   ar
    10    24    25   ar
    11    25    26   ar
    12    26    20    1
    13    20    21    2
    14    20     1    1
    15     1     2   ar
    16     2     3   ar
    17     3     4   ar
    18     4     5   ar
    19     5     6   ar
    20     6     7   ar
    21     7    11    1
    22    11    12   ar
    23    12    13   ar
    24    13    14   ar
    25    14    17    1
    26    17    18    1
    27    17    19    1
    28    14    15   ar
    29    15    16   ar
    30     7     8   ar
    31     8     9   ar
    32    26    27   ar
    33    27    28    1
    34    27    22   ar
    35     9     1   ar
    36     9     4    1
    37    16    11   ar
    38    29    30    1
    39     5    10    1
@<TRIPOS>MOLECULE
*****
 36 39 0 0 0
SMALL
GASTEIGER

@<TRIPOS>ATOM
      1 C          63.5371   83.9345   13.7369 C.ar    1  UNL1        0.0611
      2 C          63.0145   82.9960   14.7838 C.ar    1  UNL1        0.1037
      3 N          62.7508   83.7905   16.0284 N.ar    1  UNL1       -0.2269
      4 C          63.1103   85.2201   15.7508 C.ar    1  UNL1        0.1407
      5 N          63.0580   86.4522   16.6046 N.ar    1  UNL1       -0.3374
      6 C          63.4916   87.7734   16.0421 C.ar    1  UNL1        0.0735
      7 C          63.9776   87.8624   14.6258 C.ar    1  UNL1        0.0201
      8 C          64.0300   86.6302   13.7720 C.ar    1  UNL1        0.0047
      9 C          63.5963   85.3091   14.3345 C.ar    1  UNL1        0.0386
     10 H          62.7390   86.3938   17.5341 H       1  UNL1        0.1674
     11 C          64.4113   89.1836   14.0633 C.ar    1  UNL1        0.0399
     12 C          65.4940   89.9688   14.7424 C.ar    1  UNL1        0.1034
     13 N          65.9277   91.2901   14.1799 N.ar    1  UNL1       -0.2121
     14 C          65.2785   91.8261   12.9384 C.ar    1  UNL1        0.2203
     15 N          64.1957   91.0408   12.2594 N.ar    1  UNL1       -0.2121
     16 C          63.7621   89.7197   12.8218 C.ar    1  UNL1        0.1034
     17 N          65.7121   93.1473   12.3759 N.pl3   1  UNL1       -0.2747
     18 C          65.4416   93.4751   10.9374 C.3     1  UNL1        0.1151
     19 C          66.4163   94.1406   13.2519 C.3     1  UNL1        0.1151
     20 C          63.9313   83.5637   12.3379 C.2     1  UNL1        0.1994
     21 O          64.9228   82.4626   12.1050 O.2     1  UNL1       -0.2864
     22 C          61.5568   85.9278   10.2111 C.ar    1  UNL1        0.0919
     23 C          62.1390   85.7546    8.8396 C.ar    1  UNL1        0.0181
     24 C          63.3187   84.8512    8.6342 C.ar    1  UNL1        0.0016
     25 C          63.9161   84.1209    9.8002 C.ar    1  UNL1        0.0055
     26 C          63.3339   84.2940   11.1717 C.ar    1  UNL1        0.0677
     27 C          62.1542   85.1975   11.3771 C.ar    1  UNL1        0.1576
     28 F          61.5720   85.3706   12.7487 F       1  UNL1       -0.2027
     29 N          60.3772   86.8313   10.4165 N.pl3   1  UNL1       -0.2166
     30 H          59.7711   86.6840   11.1782 H       1  UNL1        0.1734
     31 S          60.1210   87.9591    9.4614 S.O2    1  UNL1        0.0540
     32 O          61.1712   88.7801   10.1492 O.2     1  UNL1       -0.1545
     33 O          59.0708   87.1381    8.7736 O.2     1  UNL1       -0.1545
     34 C          59.8647   89.0869    8.5062 C.3     1  UNL1        0.1724
     35 C          59.1529   89.9235    6.1517 C.3     1  UNL1        0.0019
     36 C          59.4172   88.7955    7.1044 C.3     1  UNL1        0.0273
@<TRIPOS>BOND
     1    35    36    1
     2    36    34    1
     3    34    31    1
     4    31    32    2
     5    31    33    2
     6    31    29    1
     7    29    22    1
     8    22    23   ar
     9    23    24   ar
    10    24    25   ar
    11    25    26   ar
    12    26    20    1
    13    20    21    2
    14    20     1    1
    15     1     2   ar
    16     2     3   ar
    17     3     4   ar
    18     4     5   ar
    19     5     6   ar
    20     6     7   ar
    21     7    11    1
    22    11    12   ar
    23    12    13   ar
    24    13    14   ar
    25    14    17    1
    26    17    18    1
    27    17    19    1
    28    14    15   ar
    29    15    16   ar
    30     7     8   ar
    31     8     9   ar
    32    26    27   ar
    33    27    28    1
    34    27    22   ar
    35     9     1   ar
    36     9     4    1
    37    16    11   ar
    38    29    30    1
    39     5    10    1
@<TRIPOS>MOLECULE
*****
 36 39 0 0 0
SMALL
GASTEIGER

@<TRIPOS>ATOM
      1 C          61.7553   86.7920   10.8733 C.ar    1  UNL1        0.0611
      2 C          60.4002   86.7702   10.2304 C.ar    1  UNL1        0.1037
      3 N          59.8758   88.1754   10.2070 N.ar    1  UNL1       -0.2269
      4 C          60.9067   89.0655   10.8354 C.ar    1  UNL1        0.1407
      5 N          60.9378   90.5441   11.0859 N.ar    1  UNL1       -0.3374
      6 C          62.1304   91.1677   11.7481 C.ar    1  UNL1        0.0735
      7 C          63.2921   90.3126   12.1599 C.ar    1  UNL1        0.0201
      8 C          63.2610   88.8341   11.9095 C.ar    1  UNL1        0.0047
      9 C          62.0683   88.2105   11.2472 C.ar    1  UNL1        0.0386
     10 H          60.1753   91.1053   10.8156 H       1  UNL1        0.1674
     11 C          64.4848   90.9363   12.8222 C.ar    1  UNL1        0.0399
     12 C          64.9790   90.4022   14.1339 C.ar    1  UNL1        0.1034
     13 N          66.1717   91.0259   14.7962 N.ar    1  UNL1       -0.2121
     14 C          66.8702   92.1836   14.1467 C.ar    1  UNL1        0.2203
     15 N          66.3759   92.7177   12.8350 N.ar    1  UNL1       -0.2121
     16 C          65.1833   92.0940   12.1728 C.ar    1  UNL1        0.1034
     17 N          68.0628   92.8073   14.8089 N.pl3   1  UNL1       -0.2747
     18 C          67.8714   93.8213   15.8974 C.3     1  UNL1        0.1151
     19 C          69.4470   92.4168   14.3826 C.3     1  UNL1        0.1151
     20 C          62.6418   85.6038   11.1021 C.2     1  UNL1        0.1994
     21 O          63.2060   84.8527    9.9328 O.2     1  UNL1       -0.2864
     22 C          62.8050   83.3993   14.3983 C.ar    1  UNL1        0.0919
     23 C          63.6082   84.2922   15.2969 C.ar    1  UNL1        0.0181
     24 C          64.0893   85.6222   14.7973 C.ar    1  UNL1        0.0016
     25 C          63.7672   86.0594   13.3991 C.ar    1  UNL1        0.0055
     26 C          62.9639   85.1666   12.5005 C.ar    1  UNL1        0.0677
     27 C          62.4828   83.8366   13.0001 C.ar    1  UNL1        0.1576
     28 F          61.6796   82.9437   12.1013 F       1  UNL1       -0.2027
     29 N          62.3239   82.0693   14.8978 N.pl3   1  UNL1       -0.2166
     30 H          61.9334   81.9937   15.7984 H       1  UNL1        0.1734
     31 S          62.4377   80.8546   14.0253 S.O2    1  UNL1        0.0540
     32 O          63.9324   80.9159   14.1350 O.2     1  UNL1       -0.1545
     33 O          60.9430   80.7933   13.9156 O.2     1  UNL1       -0.1545
     34 C          62.5514   79.6398   13.1527 C.3     1  UNL1        0.1724
     35 C          63.2573   81.0352   11.0779 C.3     1  UNL1        0.0019
     36 C          62.6553   79.7927   11.6641 C.3     1  UNL1        0.0273
@<TRIPOS>BOND
     1    35    36    1
     2    36    34    1
     3    34    31    1
     4    31    32    2
     5    31    33    2
     6    31    29    1
     7    29    22    1
     8    22    23   ar
     9    23    24   ar
    10    24    25   ar
    11    25    26   ar
    12    26    20    1
    13    20    21    2
    14    20     1    1
    15     1     2   ar
    16     2     3   ar
    17     3     4   ar
    18     4     5   ar
    19     5     6   ar
    20     6     7   ar
    21     7    11    1
    22    11    12   ar
    23    12    13   ar
    24    13    14   ar
    25    14    17    1
    26    17    18    1
    27    17    19    1
    28    14    15   ar
    29    15    16   ar
    30     7     8   ar
    31     8     9   ar
    32    26    27   ar
    33    27    28    1
    34    27    22   ar
    35     9     1   ar
    36     9     4    1
    37    16    11   ar
    38    29    30    1
    39     5    10    1
@<TRIPOS>MOLECULE
*****
 36 39 0 0 0
SMALL
GASTEIGER

@<TRIPOS>ATOM
      1 C          64.5441   90.9012   14.9574 C.ar    1  UNL1        0.0611
      2 C          64.2491   91.8766   16.0582 C.ar    1  UNL1        0.1037
      3 N          63.6220   91.1204   17.1917 N.ar    1  UNL1       -0.2269
      4 C          63.5294   89.6777   16.7915 C.ar    1  UNL1        0.1407
      5 N          62.9997   88.4699   17.5061 N.ar    1  UNL1       -0.3374
      6 C          63.0400   87.1267   16.8398 C.ar    1  UNL1        0.0735
      7 C          63.6099   86.9912   15.4589 C.ar    1  UNL1        0.0201
      8 C          64.1395   88.1990   14.7443 C.ar    1  UNL1        0.0047
      9 C          64.0993   89.5423   15.4106 C.ar    1  UNL1        0.0386
     10 H          62.6257   88.5589   18.4124 H       1  UNL1        0.1674
     11 C          63.6501   85.6479   14.7926 C.ar    1  UNL1        0.0399
     12 C          63.5488   85.5480   13.2994 C.ar    1  UNL1        0.1034
     13 N          63.5891   84.2047   12.6331 N.ar    1  UNL1       -0.2121
     14 C          63.7306   82.9613   13.4601 C.ar    1  UNL1        0.2203
     15 N          63.8319   83.0612   14.9534 N.ar    1  UNL1       -0.2121
     16 C          63.7917   84.4045   15.6196 C.ar    1  UNL1        0.1034
     17 N          63.7709   81.6180   12.7938 N.pl3   1  UNL1       -0.2747
     18 C          63.5626   80.3727   13.6036 C.3     1  UNL1        0.1151
     19 C          64.0194   81.5200   11.3178 C.3     1  UNL1        0.1151
     20 C          65.1734   91.2275   13.6355 C.2     1  UNL1        0.1994
     21 O          66.6403   91.5306   13.5576 O.2     1  UNL1       -0.2864
     22 C          62.1282   90.6626   11.1540 C.ar    1  UNL1        0.0919
     23 C          62.6604   91.2970    9.9032 C.ar    1  UNL1        0.0181
     24 C          64.0302   91.9082    9.8965 C.ar    1  UNL1        0.0016
     25 C          64.8679   91.8851   11.1406 C.ar    1  UNL1        0.0055
     26 C          64.3357   91.2507   12.3913 C.ar    1  UNL1        0.0677
     27 C          62.9659   90.6395   12.3980 C.ar    1  UNL1        0.1576
     28 F          62.4338   90.0051   13.6488 F       1  UNL1       -0.2027
     29 N          60.7584   90.0514   11.1606 N.pl3   1  UNL1       -0.2166
     30 H          60.0167   90.5105   11.6170 H       1  UNL1        0.1734
     31 S          60.5187   88.7406   10.4719 S.O2    1  UNL1        0.0540
     32 O          60.0464   89.4695    9.2490 O.2     1  UNL1       -0.1545
     33 O          60.9910   88.0116   11.6948 O.2     1  UNL1       -0.1545
     34 C          60.2790   87.4298    9.7832 C.3     1  UNL1        0.1724
     35 C          62.2618   86.0033    8.8978 C.3     1  UNL1        0.0019
     36 C          61.2487   86.2995    9.9635 C.3     1  UNL1        0.0273
@<TRIPOS>BOND
     1    35    36    1
     2    36    34    1
     3    34    31    1
     4    31    32    2
     5    31    33    2
     6    31    29    1
     7    29    22    1
     8    22    23   ar
     9    23    24   ar
    10    24    25   ar
    11    25    26   ar
    12    26    20    1
    13    20    21    2
    14    20     1    1
    15     1     2   ar
    16     2     3   ar
    17     3     4   ar
    18     4     5   ar
    19     5     6   ar
    20     6     7   ar
    21     7    11    1
    22    11    12   ar
    23    12    13   ar
    24    13    14   ar
    25    14    17    1
    26    17    18    1
    27    17    19    1
    28    14    15   ar
    29    15    16   ar
    30     7     8   ar
    31     8     9   ar
    32    26    27   ar
    33    27    28    1
    34    27    22   ar
    35     9     1   ar
    36     9     4    1
    37    16    11   ar
    38    29    30    1
    39     5    10    1
@<TRIPOS>MOLECULE
*****
 36 39 0 0 0
SMALL
GASTEIGER

@<TRIPOS>ATOM
      1 C          62.8522   90.2024   12.0672 C.ar    1  UNL1        0.0611
      2 C          62.4328   91.2288   11.0569 C.ar    1  UNL1        0.1037
      3 N          61.8984   90.5058    9.8562 N.ar    1  UNL1       -0.2269
      4 C          61.9875   89.0327   10.1244 C.ar    1  UNL1        0.1407
      5 N          61.6080   87.8378    9.3008 N.ar    1  UNL1       -0.3374
      6 C          61.8180   86.4554    9.8438 C.ar    1  UNL1        0.0735
      7 C          62.4075   86.2679   11.2103 C.ar    1  UNL1        0.0201
      8 C          62.7870   87.4628   12.0339 C.ar    1  UNL1        0.0047
      9 C          62.5770   88.8451   11.4909 C.ar    1  UNL1        0.0386
     10 H          61.2211   87.9609    8.4040 H       1  UNL1        0.1674
     11 C          62.6175   84.8854   11.7533 C.ar    1  UNL1        0.0399
     12 C          63.0092   83.7690   10.8313 C.ar    1  UNL1        0.1034
     13 N          63.2192   82.3865   11.3742 N.ar    1  UNL1       -0.2121
     14 C          63.0375   82.1206   12.8392 C.ar    1  UNL1        0.2203
     15 N          62.6458   83.2371   13.7613 N.ar    1  UNL1       -0.2121
     16 C          62.4358   84.6194   13.2183 C.ar    1  UNL1        0.1034
     17 N          63.2475   80.7382   13.3822 N.pl3   1  UNL1       -0.2747
     18 C          64.3908   80.4639   14.3136 C.3     1  UNL1        0.1151
     19 C          62.3141   79.6300   12.9939 C.3     1  UNL1        0.1151
     20 C          63.4431   90.4838   13.4169 C.2     1  UNL1        0.1994
     21 O          62.6726   90.1450   14.6584 O.2     1  UNL1       -0.2864
     22 C          66.7931   92.3709   12.4335 C.ar    1  UNL1        0.0919
     23 C          67.5274   92.3449   13.7412 C.ar    1  UNL1        0.0181
     24 C          66.9003   91.6986   14.9408 C.ar    1  UNL1        0.0016
     25 C          65.5389   91.0782   14.8328 C.ar    1  UNL1        0.0055
     26 C          64.8046   91.1042   13.5250 C.ar    1  UNL1        0.0677
     27 C          65.4317   91.7505   12.3255 C.ar    1  UNL1        0.1576
     28 F          64.6973   91.7764   11.0177 F       1  UNL1       -0.2027
     29 N          67.4202   93.0172   11.2339 N.pl3   1  UNL1       -0.2166
     30 H          68.2339   92.6314   10.8360 H       1  UNL1        0.1734
     31 S          66.8076   94.2512   10.6407 S.O2    1  UNL1        0.0540
     32 O          66.6074   94.8133   12.0169 O.2     1  UNL1       -0.1545
     33 O          67.0078   93.6890    9.2646 O.2     1  UNL1       -0.1545
     34 C          66.1950   95.4851   10.0474 C.3     1  UNL1        0.1724
     35 C          67.1286   96.8555    8.0472 C.3     1  UNL1        0.0019
     36 C          67.0745   96.5802    9.5207 C.3     1  UNL1        0.0273
@<TRIPOS>BOND
     1    35    36    1
     2    36    34    1
     3    34    31    1
     4    31    32    2
     5    31    33    2
     6    31    29    1
     7    29    22    1
     8    22    23   ar
     9    23    24   ar
    10    24    25   ar
    11    25    26   ar
    12    26    20    1
    13    20    21    2
    14    20     1    1
    15     1     2   ar
    16     2     3   ar
    17     3     4   ar
    18     4     5   ar
    19     5     6   ar
    20     6     7   ar
    21     7    11    1
    22    11    12   ar
    23    12    13   ar
    24    13    14   ar
    25    14    17    1
    26    17    18    1
    27    17    19    1
    28    14    15   ar
    29    15    16   ar
    30     7     8   ar
    31     8     9   ar
    32    26    27   ar
    33    27    28    1
    34    27    22   ar
    35     9     1   ar
    36     9     4    1
    37    16    11   ar
    38    29    30    1
    39     5    10    1
@<TRIPOS>MOLECULE
*****
 36 39 0 0 0
SMALL
GASTEIGER

@<TRIPOS>ATOM
      1 C          63.9852   88.2978   14.3577 C.ar    1  UNL1        0.0611
      2 C          64.6006   87.1887   15.1584 C.ar    1  UNL1        0.1037
      3 N          64.3455   85.8989   14.4364 N.ar    1  UNL1       -0.2269
      4 C          63.5723   86.2109   13.1894 C.ar    1  UNL1        0.1407
      5 N          63.0423   85.3365   12.0919 N.ar    1  UNL1       -0.3374
      6 C          62.2897   85.9448   10.9458 C.ar    1  UNL1        0.0735
      7 C          62.0671   87.4273   10.8972 C.ar    1  UNL1        0.0201
      8 C          62.5971   88.3017   11.9947 C.ar    1  UNL1        0.0047
      9 C          63.3497   87.6935   13.1408 C.ar    1  UNL1        0.0386
     10 H          63.1885   84.3635   12.1238 H       1  UNL1        0.1674
     11 C          61.3144   88.0355    9.7510 C.ar    1  UNL1        0.0399
     12 C          61.1495   89.5241    9.6676 C.ar    1  UNL1        0.1034
     13 N          60.3968   90.1323    8.5214 N.ar    1  UNL1       -0.2121
     14 C          59.8090   89.2519    7.4587 C.ar    1  UNL1        0.2203
     15 N          59.9739   87.7632    7.5422 N.ar    1  UNL1       -0.2121
     16 C          60.7265   87.1551    8.6883 C.ar    1  UNL1        0.1034
     17 N          59.0564   89.8600    6.3126 N.pl3   1  UNL1       -0.2747
     18 C          59.7985   90.5785    5.2250 C.3     1  UNL1        0.1151
     19 C          57.5616   89.7496    6.2541 C.3     1  UNL1        0.1151
     20 C          64.0023   89.7553   14.7118 C.2     1  UNL1        0.1994
     21 O          62.9966   90.3038   15.6799 O.2     1  UNL1       -0.2864
     22 C          65.7048   92.3709   12.2601 C.ar    1  UNL1        0.0919
     23 C          67.0711   92.4825   12.8691 C.ar    1  UNL1        0.0181
     24 C          67.4144   91.6850   14.0923 C.ar    1  UNL1        0.0016
     25 C          66.3916   90.7759   14.7065 C.ar    1  UNL1        0.0055
     26 C          65.0253   90.6644   14.0975 C.ar    1  UNL1        0.0677
     27 C          64.6820   91.4619   12.8744 C.ar    1  UNL1        0.1576
     28 F          63.3156   91.3503   12.2655 F       1  UNL1       -0.2027
     29 N          65.3615   93.1684   11.0370 N.pl3   1  UNL1       -0.2166
     30 H          64.4723   93.0782   10.6241 H       1  UNL1        0.1734
     31 S          66.3729   94.1034   10.4429 S.O2    1  UNL1        0.0540
     32 O          65.7729   95.2419   11.2135 O.2     1  UNL1       -0.1545
     33 O          66.9728   92.9648    9.6724 O.2     1  UNL1       -0.1545
     34 C          67.3843   95.0382    9.8489 C.3     1  UNL1        0.1724
     35 C          66.9650   96.7982    7.9841 C.3     1  UNL1        0.0019
     36 C          67.3104   95.3973    8.3943 C.3     1  UNL1        0.0273
@<TRIPOS>BOND
     1    35    36    1
     2    36    34    1
     3    34    31    1
     4    31    32    2
     5    31    33    2
     6    31    29    1
     7    29    22    1
     8    22    23   ar
     9    23    24   ar
    10    24    25   ar
    11    25    26   ar
    12    26    20    1
    13    20    21    2
    14    20     1    1
    15     1     2   ar
    16     2     3   ar
    17     3     4   ar
    18     4     5   ar
    19     5     6   ar
    20     6     7   ar
    21     7    11    1
    22    11    12   ar
    23    12    13   ar
    24    13    14   ar
    25    14    17    1
    26    17    18    1
    27    17    19    1
    28    14    15   ar
    29    15    16   ar
    30     7     8   ar
    31     8     9   ar
    32    26    27   ar
    33    27    28    1
    34    27    22   ar
    35     9     1   ar
    36     9     4    1
    37    16    11   ar
    38    29    30    1
    39     5    10    1
