@<TRIPOS>MOLECULE
*****
 35 39 0 0 0
SMALL
GASTEIGER

@<TRIPOS>ATOM
      1 N          63.0651   89.7171   15.6798 N.ar    1  UNL1       -0.1994
      2 N          64.3276   90.4899   15.4369 N.ar    1  UNL1       -0.1460
      3 C          64.2984   90.9933   14.0242 C.ar    1  UNL1        0.1860
      4 C          65.2724   91.8124   13.2303 C.ar    1  UNL1        0.0423
      5 C          64.9659   92.1700   11.8061 C.ar    1  UNL1        0.0636
      6 C          63.6853   91.7083   11.1759 C.ar    1  UNL1        0.2757
      7 O          63.3788   92.0658    9.7517 O.2     1  UNL1       -0.2655
      8 N          62.7113   90.8891   11.9699 N.ar    1  UNL1       -0.2229
      9 N          63.0179   90.5316   13.3940 N.ar    1  UNL1       -0.1765
     10 C          62.2557   89.7429   14.4172 C.ar    1  UNL1        0.3669
     11 O          60.9188   89.0939   14.2136 O.2     1  UNL1       -0.2429
     12 C          66.5529   92.2741   13.8605 C.ar    1  UNL1        0.0032
     13 C          67.8515   91.6260   13.4818 C.ar    1  UNL1        0.0010
     14 C          69.1320   92.0876   14.1120 C.ar    1  UNL1        0.0114
     15 C          69.1139   93.1974   15.1210 C.ar    1  UNL1        0.0577
     16 CL         70.3944   93.6591   15.7512 Cl      1  UNL1       -0.0822
     17 C          67.8152   93.8456   15.4997 C.ar    1  UNL1        0.0114
     18 C          66.5347   93.3840   14.8695 C.ar    1  UNL1        0.0010
     19 C          65.9398   92.9891   11.0122 C.ar    1  UNL1        0.0444
     20 C          67.1453   92.4679   10.2875 C.ar    1  UNL1        0.1218
     21 N          67.8298   93.6299    9.6310 N.ar    1  UNL1       -0.1676
     22 N          67.0474   94.8694    9.9499 N.ar    1  UNL1       -0.2473
     23 C          67.3755   96.2606    9.4950 C.3     1  UNL1        0.1538
     24 C          65.8794   94.4733   10.8035 C.ar    1  UNL1        0.0968
     25 C          62.9680   87.5781   17.1514 C.3     1  UNL1        0.0286
     26 C          62.6798   89.0377   16.9605 C.3     1  UNL1        0.1324
     27 C          61.4308   90.4275   11.3397 C.3     1  UNL1        0.1557
     28 C          61.4335   89.2473   10.4138 C.ar    1  UNL1        0.0022
     29 C          62.4107   88.1293   10.6264 C.ar    1  UNL1       -0.0016
     30 C          62.4133   86.9492    9.7005 C.ar    1  UNL1        0.0100
     31 C          61.4386   86.8871    8.5620 C.ar    1  UNL1        0.0684
     32 C          60.4614   88.0050    8.3493 C.ar    1  UNL1        0.0100
     33 C          60.4589   89.1851    9.2752 C.ar    1  UNL1       -0.0016
     34 C          61.4413   85.7069    7.6361 C.1     1  UNL1        0.1004
     35 N          61.4439   84.5268    6.7102 N.1     1  UNL1       -0.1908
@<TRIPOS>BOND
     1    25    26    1
     2    26     1    1
     3     1     2   ar
     4     2     3   ar
     5     3     4   ar
     6     4    12    1
     7    12    13   ar
     8    13    14   ar
     9    14    15   ar
    10    15    16    1
    11    15    17   ar
    12    17    18   ar
    13     4     5   ar
    14     5    19    1
    15    19    20   ar
    16    20    21   ar
    17    21    22   ar
    18    22    23    1
    19    22    24   ar
    20     5     6   ar
    21     6     7    2
    22     6     8   ar
    23     8    27    1
    24    27    28    1
    25    28    29   ar
    26    29    30   ar
    27    30    31   ar
    28    31    34    1
    29    34    35    3
    30    31    32   ar
    31    32    33   ar
    32     8     9   ar
    33     9    10   ar
    34    10    11    2
    35    10     1   ar
    36     9     3   ar
    37    18    12   ar
    38    24    19   ar
    39    33    28   ar
@<TRIPOS>MOLECULE
*****
 35 39 0 0 0
SMALL
GASTEIGER

@<TRIPOS>ATOM
      1 N          61.9850   90.4980   10.2686 N.ar    1  UNL1       -0.1994
      2 N          63.1387   91.4565   10.2580 N.ar    1  UNL1       -0.1460
      3 C          63.9486   91.2210   11.4984 C.ar    1  UNL1        0.1860
      4 C          65.1964   91.8692   12.0206 C.ar    1  UNL1        0.0423
      5 C          65.7911   91.4134   13.3201 C.ar    1  UNL1        0.0636
      6 C          65.1379   90.3092   14.0974 C.ar    1  UNL1        0.2757
      7 O          65.7325   89.8533   15.3968 O.2     1  UNL1       -0.2655
      8 N          63.8900   89.6610   13.5752 N.ar    1  UNL1       -0.2229
      9 N          63.2954   90.1169   12.2757 N.ar    1  UNL1       -0.1765
     10 C          62.0818   89.6700   11.5157 C.ar    1  UNL1        0.3669
     11 O          61.1319   88.5856   11.9300 O.2     1  UNL1       -0.2429
     12 C          65.8496   92.9734   11.2433 C.ar    1  UNL1        0.0032
     13 C          66.7623   92.6465   10.0987 C.ar    1  UNL1        0.0010
     14 C          67.4156   93.7507    9.3214 C.ar    1  UNL1        0.0114
     15 C          67.1561   95.1816    9.6887 C.ar    1  UNL1        0.0577
     16 CL         67.8093   96.2858    8.9114 Cl      1  UNL1       -0.0822
     17 C          66.2433   95.5085   10.8333 C.ar    1  UNL1        0.0114
     18 C          65.5901   94.4044   11.6106 C.ar    1  UNL1        0.0010
     19 C          67.0389   92.0616   13.8422 C.ar    1  UNL1        0.0444
     20 C          68.4382   91.7793   13.3814 C.ar    1  UNL1        0.1218
     21 N          69.3706   92.6492   14.1712 N.ar    1  UNL1       -0.1676
     22 N          68.5477   93.4692   15.1202 N.ar    1  UNL1       -0.2473
     23 C          69.0735   94.4755   16.1003 C.3     1  UNL1        0.1538
     24 C          67.1066   93.1060   14.9168 C.ar    1  UNL1        0.0968
     25 C          60.3776   89.0409    8.8393 C.3     1  UNL1        0.0286
     26 C          60.9213   90.3869    9.2169 C.3     1  UNL1        0.1324
     27 C          63.2368   88.5568   14.3525 C.3     1  UNL1        0.1557
     28 C          63.5260   87.1254   14.0095 C.ar    1  UNL1        0.0022
     29 C          64.3730   86.2914   14.9244 C.ar    1  UNL1       -0.0016
     30 C          64.6621   84.8601   14.5814 C.ar    1  UNL1        0.0100
     31 C          64.1043   84.2628   13.3237 C.ar    1  UNL1        0.0684
     32 C          63.2572   85.0968   12.4088 C.ar    1  UNL1        0.0100
     33 C          62.9681   86.5281   12.7518 C.ar    1  UNL1       -0.0016
     34 C          64.3935   82.8314   12.9807 C.1     1  UNL1        0.1004
     35 N          64.6827   81.4001   12.6378 N.1     1  UNL1       -0.1908
@<TRIPOS>BOND
     1    25    26    1
     2    26     1    1
     3     1     2   ar
     4     2     3   ar
     5     3     4   ar
     6     4    12    1
     7    12    13   ar
     8    13    14   ar
     9    14    15   ar
    10    15    16    1
    11    15    17   ar
    12    17    18   ar
    13     4     5   ar
    14     5    19    1
    15    19    20   ar
    16    20    21   ar
    17    21    22   ar
    18    22    23    1
    19    22    24   ar
    20     5     6   ar
    21     6     7    2
    22     6     8   ar
    23     8    27    1
    24    27    28    1
    25    28    29   ar
    26    29    30   ar
    27    30    31   ar
    28    31    34    1
    29    34    35    3
    30    31    32   ar
    31    32    33   ar
    32     8     9   ar
    33     9    10   ar
    34    10    11    2
    35    10     1   ar
    36     9     3   ar
    37    18    12   ar
    38    24    19   ar
    39    33    28   ar
@<TRIPOS>MOLECULE
*****
 35 39 0 0 0
SMALL
GASTEIGER

@<TRIPOS>ATOM
      1 N          63.7848   86.5347   15.2941 N.ar    1  UNL1       -0.1994
      2 N          63.6032   85.4790   14.2442 N.ar    1  UNL1       -0.1460
      3 C          63.1232   86.1492   12.9910 C.ar    1  UNL1        0.1860
      4 C          62.7760   85.6108   11.6347 C.ar    1  UNL1        0.0423
      5 C          62.3138   86.5425   10.5537 C.ar    1  UNL1        0.0636
      6 C          62.1989   88.0125   10.8292 C.ar    1  UNL1        0.2757
      7 O          61.7367   88.9442    9.7483 O.2     1  UNL1       -0.2655
      8 N          62.5461   88.5509   12.1855 N.ar    1  UNL1       -0.2229
      9 N          63.0082   87.6192   13.2664 N.ar    1  UNL1       -0.1765
     10 C          63.4171   87.8574   14.6898 C.ar    1  UNL1        0.3669
     11 O          63.4522   89.1853   15.3866 O.2     1  UNL1       -0.2429
     12 C          62.8910   84.1408   11.3593 C.ar    1  UNL1        0.0032
     13 C          62.0886   83.1620   12.1642 C.ar    1  UNL1        0.0010
     14 C          62.2035   81.6920   11.8888 C.ar    1  UNL1        0.0114
     15 C          63.1209   81.2008   10.8085 C.ar    1  UNL1        0.0577
     16 CL         63.2359   79.7308   10.5330 Cl      1  UNL1       -0.0822
     17 C          63.9234   82.1797   10.0035 C.ar    1  UNL1        0.0114
     18 C          63.8084   83.6497   10.2789 C.ar    1  UNL1        0.0010
     19 C          61.9666   86.0042    9.1974 C.ar    1  UNL1        0.0444
     20 C          60.5910   85.9301    8.6039 C.ar    1  UNL1        0.1218
     21 N          60.7083   85.3256    7.2362 N.ar    1  UNL1       -0.1676
     22 N          62.1564   85.0259    6.9844 N.ar    1  UNL1       -0.2473
     23 C          62.7266   84.4143    5.7391 C.3     1  UNL1        0.1538
     24 C          62.9340   85.4454    8.1965 C.ar    1  UNL1        0.0968
     25 C          63.2610   86.2896   17.8270 C.3     1  UNL1        0.0286
     26 C          64.2521   86.3076   16.7013 C.3     1  UNL1        0.1324
     27 C          62.4311   90.0209   12.4610 C.3     1  UNL1        0.1557
     28 C          63.5068   90.9574   11.9962 C.ar    1  UNL1        0.0022
     29 C          63.5079   91.4551   10.5812 C.ar    1  UNL1       -0.0016
     30 C          64.5835   92.3916   10.1165 C.ar    1  UNL1        0.0100
     31 C          65.6580   92.8303   11.0667 C.ar    1  UNL1        0.0684
     32 C          65.6569   92.3325   12.4817 C.ar    1  UNL1        0.0100
     33 C          64.5813   91.3961   12.9464 C.ar    1  UNL1       -0.0016
     34 C          66.7337   93.7668   10.6019 C.1     1  UNL1        0.1004
     35 N          67.8093   94.7033   10.1371 N.1     1  UNL1       -0.1908
@<TRIPOS>BOND
     1    25    26    1
     2    26     1    1
     3     1     2   ar
     4     2     3   ar
     5     3     4   ar
     6     4    12    1
     7    12    13   ar
     8    13    14   ar
     9    14    15   ar
    10    15    16    1
    11    15    17   ar
    12    17    18   ar
    13     4     5   ar
    14     5    19    1
    15    19    20   ar
    16    20    21   ar
    17    21    22   ar
    18    22    23    1
    19    22    24   ar
    20     5     6   ar
    21     6     7    2
    22     6     8   ar
    23     8    27    1
    24    27    28    1
    25    28    29   ar
    26    29    30   ar
    27    30    31   ar
    28    31    34    1
    29    34    35    3
    30    31    32   ar
    31    32    33   ar
    32     8     9   ar
    33     9    10   ar
    34    10    11    2
    35    10     1   ar
    36     9     3   ar
    37    18    12   ar
    38    24    19   ar
    39    33    28   ar
@<TRIPOS>MOLECULE
*****
 35 39 0 0 0
SMALL
GASTEIGER

@<TRIPOS>ATOM
      1 N          63.7358   85.2378   12.5747 N.ar    1  UNL1       -0.1994
      2 N          63.1910   85.1569   11.1795 N.ar    1  UNL1       -0.1460
      3 C          62.4583   86.4341   10.8931 C.ar    1  UNL1        0.1860
      4 C          61.7192   86.9171    9.6805 C.ar    1  UNL1        0.0423
      5 C          61.0721   88.2704    9.6861 C.ar    1  UNL1        0.0636
      6 C          61.1641   89.1406   10.9044 C.ar    1  UNL1        0.2757
      7 O          60.5170   90.4938   10.9101 O.2     1  UNL1       -0.2655
      8 N          61.9032   88.6576   12.1171 N.ar    1  UNL1       -0.2229
      9 N          62.5503   87.3044   12.1114 N.ar    1  UNL1       -0.1765
     10 C          63.3398   86.5650   13.1506 C.ar    1  UNL1        0.3669
     11 O          63.6746   87.0651   14.5246 O.2     1  UNL1       -0.2429
     12 C          61.6272   86.0468    8.4623 C.ar    1  UNL1        0.0032
     13 C          60.2925   85.7741    7.8344 C.ar    1  UNL1        0.0010
     14 C          60.2005   84.9039    6.6161 C.ar    1  UNL1        0.0114
     15 C          61.4432   84.3063    6.0257 C.ar    1  UNL1        0.0577
     16 CL         61.3511   83.4360    4.8074 Cl      1  UNL1       -0.0822
     17 C          62.7779   84.5790    6.6536 C.ar    1  UNL1        0.0114
     18 C          62.8699   85.4492    7.8718 C.ar    1  UNL1        0.0010
     19 C          60.3330   88.7533    8.4735 C.ar    1  UNL1        0.0444
     20 C          59.0125   88.2383    7.9827 C.ar    1  UNL1        0.1218
     21 N          58.6480   89.0028    6.7446 N.ar    1  UNL1       -0.1676
     22 N          59.7434   89.9903    6.4703 N.ar    1  UNL1       -0.2473
     23 C          59.7892   90.9614    5.3280 C.3     1  UNL1        0.1538
     24 C          60.7847   89.8361    7.5388 C.ar    1  UNL1        0.0968
     25 C          64.3755   82.7384   12.8808 C.3     1  UNL1        0.0286
     26 C          64.5361   84.1777   13.2715 C.3     1  UNL1        0.1324
     27 C          61.9952   89.5279   13.3353 C.3     1  UNL1        0.1557
     28 C          63.2475   90.3076   13.6072 C.ar    1  UNL1        0.0022
     29 C          63.9341   91.0370   12.4907 C.ar    1  UNL1       -0.0016
     30 C          65.1863   91.8167   12.7626 C.ar    1  UNL1        0.0100
     31 C          65.7520   91.8670   14.1510 C.ar    1  UNL1        0.0684
     32 C          65.0654   91.1375   15.2674 C.ar    1  UNL1        0.0100
     33 C          63.8132   90.3579   14.9956 C.ar    1  UNL1       -0.0016
     34 C          67.0043   92.6467   14.4228 C.1     1  UNL1        0.1004
     35 N          68.2565   93.4264   14.6947 N.1     1  UNL1       -0.1908
@<TRIPOS>BOND
     1    25    26    1
     2    26     1    1
     3     1     2   ar
     4     2     3   ar
     5     3     4   ar
     6     4    12    1
     7    12    13   ar
     8    13    14   ar
     9    14    15   ar
    10    15    16    1
    11    15    17   ar
    12    17    18   ar
    13     4     5   ar
    14     5    19    1
    15    19    20   ar
    16    20    21   ar
    17    21    22   ar
    18    22    23    1
    19    22    24   ar
    20     5     6   ar
    21     6     7    2
    22     6     8   ar
    23     8    27    1
    24    27    28    1
    25    28    29   ar
    26    29    30   ar
    27    30    31   ar
    28    31    34    1
    29    34    35    3
    30    31    32   ar
    31    32    33   ar
    32     8     9   ar
    33     9    10   ar
    34    10    11    2
    35    10     1   ar
    36     9     3   ar
    37    18    12   ar
    38    24    19   ar
    39    33    28   ar
