@<TRIPOS>MOLECULE
*****
 32 34 0 0 0
SMALL
GASTEIGER

@<TRIPOS>ATOM
      1 C          64.3892   90.6609   13.6772 C.ar    1  UNL1        0.1018
      2 C          64.0821   89.2238   13.9778 C.ar    1  UNL1        0.0239
      3 C          63.2688   88.4130   13.0129 C.ar    1  UNL1        0.0397
      4 C          62.7626   89.0393   11.7473 C.ar    1  UNL1        0.1518
      5 C          63.0698   90.4764   11.4467 C.ar    1  UNL1        0.0931
      6 C          62.5636   91.1027   10.1812 C.3     1  UNL1        0.0553
      7 N          63.8830   91.2872   12.4117 N.ar    1  UNL1       -0.2450
      8 C          66.5570   92.0593   14.3774 C.ar    1  UNL1        0.1218
      9 C          65.2024   91.4718   14.6422 C.ar    1  UNL1        0.1387
     10 N          64.8040   91.8376   16.0413 N.ar    1  UNL1       -0.1275
     11 N          65.9122   92.6511   16.6412 N.ar    1  UNL1       -0.0639
     12 N          66.9957   92.7881   15.6129 N.ar    1  UNL1       -0.2301
     13 C          68.2905   93.5246   15.7891 C.3     1  UNL1        0.1552
     14 C          67.3361   91.9390   13.1013 C.3     1  UNL1        0.2569
     15 O          66.8428   92.6125   11.8551 O.3     1  UNL1       -0.4278
     16 N          66.5785   94.8640   10.5859 N.am    1  UNL1       -0.2443
     17 C          66.2778   96.3335   10.5963 C.3     1  UNL1        0.1183
     18 C          66.5421   94.0820   11.8654 C.2     1  UNL1        0.4053
     19 O          66.2050   94.7695   13.1553 O.2     1  UNL1       -0.2262
     20 C          66.9156   94.1765    9.2961 C.3     1  UNL1        0.0968
     21 C          68.6970   92.3130    8.9735 C.3     1  UNL1        0.0018
     22 C          68.3304   93.7670    9.0120 C.3     1  UNL1        0.0216
     23 O          61.9494   88.2284   10.7824 O.3     1  UNL1       -0.4780
     24 C          62.3688   86.8301   10.4380 C.3     1  UNL1        0.1663
     25 C          62.7347   86.4832    9.0253 C.3     1  UNL1        0.0435
     26 C          63.1542   85.0847    8.6810 C.3     1  UNL1        0.0041
     27 C          63.2077   84.0333    9.7494 C.3     1  UNL1        0.0058
     28 C          62.8418   84.3802   11.1622 C.3     1  UNL1        0.0401
     29 C          62.4224   85.7785   11.5065 C.3     1  UNL1        0.0490
     30 C          62.8953   83.3287   12.2306 C.2     1  UNL1        0.0501
     31 O          62.9235   81.8771   11.8536 O.co2   1  UNL1       -0.5492
     32 O          62.9207   83.7288   13.6760 O.co2   1  UNL1       -0.5492
@<TRIPOS>UNITY_ATOM_ATTR
31 1
charge -1
@<TRIPOS>BOND
     1    21    22    1
     2    22    20    1
     3    20    16    1
     4    16    17    1
     5    16    18   am
     6    18    19    2
     7    18    15    1
     8    15    14    1
     9    14     8    1
    10     8     9   ar
    11     9     1    1
    12     1     2   ar
    13     2     3   ar
    14     3     4   ar
    15     4    23    1
    16    24    23    1
    17    24    25    1
    18    25    26    1
    19    26    27    1
    20    27    28    1
    21    28    30    1
    22    30    31   ar
    23    30    32   ar
    24    28    29    1
    25     4     5   ar
    26     5     6    1
    27     5     7   ar
    28     9    10   ar
    29    10    11   ar
    30    11    12   ar
    31    12    13    1
    32    12     8   ar
    33     7     1   ar
    34    29    24    1
@<TRIPOS>MOLECULE
*****
 32 34 0 0 0
SMALL
GASTEIGER

@<TRIPOS>ATOM
      1 C          64.3685   90.5934   13.8178 C.ar    1  UNL1        0.1018
      2 C          64.2579   89.1273   14.1147 C.ar    1  UNL1        0.0239
      3 C          63.3934   88.2515   13.2570 C.ar    1  UNL1        0.0397
      4 C          62.6395   88.8419   12.1024 C.ar    1  UNL1        0.1518
      5 C          62.7501   90.3080   11.8055 C.ar    1  UNL1        0.0931
      6 C          61.9962   90.8983   10.6509 C.3     1  UNL1        0.0553
      7 N          63.6146   91.1837   12.6631 N.ar    1  UNL1       -0.2450
      8 C          66.4801   92.1780   14.2367 C.ar    1  UNL1        0.1218
      9 C          65.2330   91.4692   14.6754 C.ar    1  UNL1        0.1387
     10 N          65.0022   91.7901   16.1224 N.ar    1  UNL1       -0.1275
     11 N          66.1067   92.6971   16.5779 N.ar    1  UNL1       -0.0639
     12 N          67.0201   92.9369   15.4124 N.ar    1  UNL1       -0.2301
     13 C          68.2563   93.7863   15.4212 C.3     1  UNL1        0.1552
     14 C          67.0816   92.1353   12.8632 C.3     1  UNL1        0.2569
     15 O          66.8003   93.2385   11.8866 O.3     1  UNL1       -0.4278
     16 N          67.1172   94.2911    9.5326 N.am    1  UNL1       -0.2443
     17 C          67.7817   94.2898    8.1878 C.3     1  UNL1        0.1183
     18 C          67.4648   93.2372   10.5418 C.2     1  UNL1        0.4053
     19 O          68.4768   92.1821   10.2063 O.2     1  UNL1       -0.2262
     20 C          66.1052   95.3462    9.8681 C.3     1  UNL1        0.0968
     21 C          66.1708   96.8535   11.9832 C.3     1  UNL1        0.0018
     22 C          66.5379   96.6107   10.5492 C.3     1  UNL1        0.0216
     23 O          61.7749   87.9660   11.2447 O.3     1  UNL1       -0.4780
     24 C          62.3277   86.6929   10.6760 C.3     1  UNL1        0.1663
     25 C          62.5268   86.5571    9.1955 C.3     1  UNL1        0.0435
     26 C          63.0796   85.2839    8.6267 C.3     1  UNL1        0.0041
     27 C          63.4332   84.1465    9.5384 C.3     1  UNL1        0.0058
     28 C          63.2341   84.2823   11.0190 C.3     1  UNL1        0.0401
     29 C          62.6813   85.5554   11.5877 C.3     1  UNL1        0.0490
     30 C          63.5877   83.1449   11.9307 C.2     1  UNL1        0.0501
     31 O          64.5334   82.0773   11.4660 O.co2   1  UNL1       -0.5492
     32 O          62.9957   83.0752   13.3072 O.co2   1  UNL1       -0.5492
@<TRIPOS>UNITY_ATOM_ATTR
31 1
charge -1
@<TRIPOS>BOND
     1    21    22    1
     2    22    20    1
     3    20    16    1
     4    16    17    1
     5    16    18   am
     6    18    19    2
     7    18    15    1
     8    15    14    1
     9    14     8    1
    10     8     9   ar
    11     9     1    1
    12     1     2   ar
    13     2     3   ar
    14     3     4   ar
    15     4    23    1
    16    24    23    1
    17    24    25    1
    18    25    26    1
    19    26    27    1
    20    27    28    1
    21    28    30    1
    22    30    31   ar
    23    30    32   ar
    24    28    29    1
    25     4     5   ar
    26     5     6    1
    27     5     7   ar
    28     9    10   ar
    29    10    11   ar
    30    11    12   ar
    31    12    13    1
    32    12     8   ar
    33     7     1   ar
    34    29    24    1
@<TRIPOS>MOLECULE
*****
 32 34 0 0 0
SMALL
GASTEIGER

@<TRIPOS>ATOM
      1 C          63.4349   85.1180   14.7062 C.ar    1  UNL1        0.1018
      2 C          64.0571   86.0333   13.6938 C.ar    1  UNL1        0.0239
      3 C          64.2677   87.4818   14.0216 C.ar    1  UNL1        0.0397
      4 C          63.8561   88.0150   15.3619 C.ar    1  UNL1        0.1518
      5 C          63.2339   87.0997   16.3743 C.ar    1  UNL1        0.0931
      6 C          62.8223   87.6328   17.7145 C.3     1  UNL1        0.0553
      7 N          63.0233   85.6512   16.0464 N.ar    1  UNL1       -0.2450
      8 C          63.2317   83.0661   13.0051 C.ar    1  UNL1        0.1218
      9 C          63.2243   83.6694   14.3784 C.ar    1  UNL1        0.1387
     10 N          62.9693   82.5699   15.3663 N.ar    1  UNL1       -0.1275
     11 N          62.8191   81.2871   14.6036 N.ar    1  UNL1       -0.0639
     12 N          62.9813   81.5938   13.1442 N.ar    1  UNL1       -0.2301
     13 C          62.9062   80.6022   12.0212 C.3     1  UNL1        0.1552
     14 C          63.4510   83.8054   11.7185 C.3     1  UNL1        0.2569
     15 O          62.2834   84.1456   10.8404 O.3     1  UNL1       -0.4278
     16 N          61.9104   86.2686    9.3901 N.am    1  UNL1       -0.2443
     17 C          61.4561   87.6927    9.2645 C.3     1  UNL1        0.1183
     18 C          61.8292   85.5696   10.7148 C.2     1  UNL1        0.4053
     19 O          61.2938   86.2947   11.9138 O.2     1  UNL1       -0.2262
     20 C          62.4458   85.5436    8.1911 C.3     1  UNL1        0.0968
     21 C          62.0387   84.3557    5.9166 C.3     1  UNL1        0.0018
     22 C          61.5229   85.1613    7.0720 C.3     1  UNL1        0.0216
     23 O          64.0667   89.4635   15.6897 O.3     1  UNL1       -0.4780
     24 C          64.5854   90.4021   14.6409 C.3     1  UNL1        0.1663
     25 C          63.6949   90.8328   13.5133 C.3     1  UNL1        0.0435
     26 C          64.2137   91.7714   12.4644 C.3     1  UNL1        0.0041
     27 C          65.6229   92.2793   12.5433 C.3     1  UNL1        0.0058
     28 C          66.5134   91.8486   13.6709 C.3     1  UNL1        0.0401
     29 C          65.9947   90.9100   14.7197 C.3     1  UNL1        0.0490
     30 C          67.9225   92.3564   13.7498 C.2     1  UNL1        0.0501
     31 O          68.2966   93.3727   14.7877 O.co2   1  UNL1       -0.5492
     32 O          68.9578   91.8480   12.7906 O.co2   1  UNL1       -0.5492
@<TRIPOS>UNITY_ATOM_ATTR
31 1
charge -1
@<TRIPOS>BOND
     1    21    22    1
     2    22    20    1
     3    20    16    1
     4    16    17    1
     5    16    18   am
     6    18    19    2
     7    18    15    1
     8    15    14    1
     9    14     8    1
    10     8     9   ar
    11     9     1    1
    12     1     2   ar
    13     2     3   ar
    14     3     4   ar
    15     4    23    1
    16    24    23    1
    17    24    25    1
    18    25    26    1
    19    26    27    1
    20    27    28    1
    21    28    30    1
    22    30    31   ar
    23    30    32   ar
    24    28    29    1
    25     4     5   ar
    26     5     6    1
    27     5     7   ar
    28     9    10   ar
    29    10    11   ar
    30    11    12   ar
    31    12    13    1
    32    12     8   ar
    33     7     1   ar
    34    29    24    1
@<TRIPOS>MOLECULE
*****
 32 34 0 0 0
SMALL
GASTEIGER

@<TRIPOS>ATOM
      1 C          63.9904   91.1863   12.4318 C.ar    1  UNL1        0.1018
      2 C          64.1515   91.4867   10.9710 C.ar    1  UNL1        0.0239
      3 C          63.0475   91.1556   10.0111 C.ar    1  UNL1        0.0397
      4 C          61.7824   90.5242   10.5118 C.ar    1  UNL1        0.1518
      5 C          61.6213   90.2237   11.9726 C.ar    1  UNL1        0.0931
      6 C          60.3562   89.5923   12.4733 C.3     1  UNL1        0.0553
      7 N          62.7253   90.5548   12.9325 N.ar    1  UNL1       -0.2450
      8 C          65.9119   92.7750   13.3956 C.ar    1  UNL1        0.1218
      9 C          65.0944   91.5173   13.3918 C.ar    1  UNL1        0.1387
     10 N          65.5747   90.6488   14.5165 N.ar    1  UNL1       -0.1275
     11 N          66.6891   91.3697   15.2155 N.ar    1  UNL1       -0.0639
     12 N          66.8975   92.6838   14.5227 N.ar    1  UNL1       -0.2301
     13 C          67.9131   93.7240   14.8922 C.3     1  UNL1        0.1552
     14 C          65.7689   93.9224   12.4401 C.3     1  UNL1        0.2569
     15 O          66.8695   94.2313   11.4690 O.3     1  UNL1       -0.4278
     16 N          67.1908   95.4901    9.2191 N.am    1  UNL1       -0.2443
     17 C          67.1561   96.7630    8.4263 C.3     1  UNL1        0.1183
     18 C          66.8348   95.5042   10.6762 C.2     1  UNL1        0.4053
     19 O          66.4442   96.7912   11.3404 O.2     1  UNL1       -0.2262
     20 C          67.5814   94.2032    8.5548 C.3     1  UNL1        0.0968
     21 C          68.2791   91.8644    9.4454 C.3     1  UNL1        0.0018
     22 C          68.6006   93.3080    9.1952 C.3     1  UNL1        0.0216
     23 O          60.6784   90.1931    9.5518 O.3     1  UNL1       -0.4780
     24 C          60.5602   88.8056    8.9943 C.3     1  UNL1        0.1663
     25 C          59.4401   88.4673    8.0557 C.3     1  UNL1        0.0435
     26 C          59.3220   87.0798    7.4982 C.3     1  UNL1        0.0041
     27 C          60.3239   86.0306    7.8792 C.3     1  UNL1        0.0058
     28 C          61.4441   86.3689    8.8178 C.3     1  UNL1        0.0401
     29 C          61.5622   87.7563    9.3753 C.3     1  UNL1        0.0490
     30 C          62.4460   85.3197    9.1988 C.2     1  UNL1        0.0501
     31 O          62.7008   85.0161   10.6455 O.co2   1  UNL1       -0.5492
     32 O          63.1933   84.5740    8.1331 O.co2   1  UNL1       -0.5492
@<TRIPOS>UNITY_ATOM_ATTR
31 1
charge -1
@<TRIPOS>BOND
     1    21    22    1
     2    22    20    1
     3    20    16    1
     4    16    17    1
     5    16    18   am
     6    18    19    2
     7    18    15    1
     8    15    14    1
     9    14     8    1
    10     8     9   ar
    11     9     1    1
    12     1     2   ar
    13     2     3   ar
    14     3     4   ar
    15     4    23    1
    16    24    23    1
    17    24    25    1
    18    25    26    1
    19    26    27    1
    20    27    28    1
    21    28    30    1
    22    30    31   ar
    23    30    32   ar
    24    28    29    1
    25     4     5   ar
    26     5     6    1
    27     5     7   ar
    28     9    10   ar
    29    10    11   ar
    30    11    12   ar
    31    12    13    1
    32    12     8   ar
    33     7     1   ar
    34    29    24    1
@<TRIPOS>MOLECULE
*****
 32 34 0 0 0
SMALL
GASTEIGER

@<TRIPOS>ATOM
      1 C          64.1122   89.3461   13.8332 C.ar    1  UNL1        0.1018
      2 C          63.3563   89.4435   12.5413 C.ar    1  UNL1        0.0239
      3 C          62.8495   88.1997   11.8734 C.ar    1  UNL1        0.0397
      4 C          63.0987   86.8586   12.4974 C.ar    1  UNL1        0.1518
      5 C          63.8546   86.7613   13.7893 C.ar    1  UNL1        0.0931
      6 C          64.1037   85.4201   14.4132 C.3     1  UNL1        0.0553
      7 N          64.3613   88.0050   14.4572 N.ar    1  UNL1       -0.2450
      8 C          65.5638   91.5896   13.9029 C.ar    1  UNL1        0.1218
      9 C          64.6190   90.5899   14.5013 C.ar    1  UNL1        0.1387
     10 N          64.2699   91.0524   15.8848 N.ar    1  UNL1       -0.1275
     11 N          64.9990   92.3379   16.1416 N.ar    1  UNL1       -0.0639
     12 N          65.7987   92.6699   14.9167 N.ar    1  UNL1       -0.2301
     13 C          66.6788   93.8713   14.7371 C.3     1  UNL1        0.1552
     14 C          66.1678   91.5210   12.5316 C.3     1  UNL1        0.2569
     15 O          65.7336   92.4893   11.4715 O.3     1  UNL1       -0.4278
     16 N          66.8359   94.4842   10.2245 N.am    1  UNL1       -0.2443
     17 C          67.8316   95.0046    9.2306 C.3     1  UNL1        0.1183
     18 C          66.7294   93.0096   10.4777 C.2     1  UNL1        0.4053
     19 O          67.6187   92.0553    9.7371 O.2     1  UNL1       -0.2262
     20 C          65.9465   95.4385   10.9650 C.3     1  UNL1        0.0968
     21 C          64.5712   96.8540    9.2754 C.3     1  UNL1        0.0018
     22 C          65.6039   96.7677   10.3599 C.3     1  UNL1        0.0216
     23 O          62.5918   85.6148   11.8293 O.3     1  UNL1       -0.4780
     24 C          62.2512   85.6336   10.3687 C.3     1  UNL1        0.1663
     25 C          63.1089   84.8889    9.3889 C.3     1  UNL1        0.0435
     26 C          62.7682   84.9077    7.9282 C.3     1  UNL1        0.0041
     27 C          61.5699   85.6711    7.4473 C.3     1  UNL1        0.0058
     28 C          60.7123   86.4158    8.4270 C.3     1  UNL1        0.0401
     29 C          61.0529   86.3970    9.8877 C.3     1  UNL1        0.0490
     30 C          59.5141   87.1793    7.9461 C.2     1  UNL1        0.0501
     31 O          59.5775   88.6726    7.8195 O.co2   1  UNL1       -0.5492
     32 O          58.2523   86.4494    7.5918 O.co2   1  UNL1       -0.5492
@<TRIPOS>UNITY_ATOM_ATTR
31 1
charge -1
@<TRIPOS>BOND
     1    21    22    1
     2    22    20    1
     3    20    16    1
     4    16    17    1
     5    16    18   am
     6    18    19    2
     7    18    15    1
     8    15    14    1
     9    14     8    1
    10     8     9   ar
    11     9     1    1
    12     1     2   ar
    13     2     3   ar
    14     3     4   ar
    15     4    23    1
    16    24    23    1
    17    24    25    1
    18    25    26    1
    19    26    27    1
    20    27    28    1
    21    28    30    1
    22    30    31   ar
    23    30    32   ar
    24    28    29    1
    25     4     5   ar
    26     5     6    1
    27     5     7   ar
    28     9    10   ar
    29    10    11   ar
    30    11    12   ar
    31    12    13    1
    32    12     8   ar
    33     7     1   ar
    34    29    24    1
@<TRIPOS>MOLECULE
*****
 32 34 0 0 0
SMALL
GASTEIGER

@<TRIPOS>ATOM
      1 C          61.7751   88.5624   10.4213 C.ar    1  UNL1        0.1018
      2 C          61.5891   90.0506   10.4464 C.ar    1  UNL1        0.0239
      3 C          62.1810   90.8617   11.5608 C.ar    1  UNL1        0.0397
      4 C          62.9588   90.1845   12.6500 C.ar    1  UNL1        0.1518
      5 C          63.1449   88.6964   12.6249 C.ar    1  UNL1        0.0931
      6 C          63.9228   88.0193   13.7141 C.3     1  UNL1        0.0553
      7 N          62.5530   87.8853   11.5105 N.ar    1  UNL1       -0.2450
      8 C          61.6511   86.3994    8.8556 C.ar    1  UNL1        0.1218
      9 C          61.1833   87.7513    9.3069 C.ar    1  UNL1        0.1387
     10 N          60.0197   88.1496    8.4482 N.ar    1  UNL1       -0.1275
     11 N          59.7684   87.0439    7.4662 N.ar    1  UNL1       -0.0639
     12 N          60.7767   85.9622    7.7180 N.ar    1  UNL1       -0.2301
     13 C          60.8906   84.6702    6.9645 C.3     1  UNL1        0.1552
     14 C          62.7930   85.6214    9.4394 C.3     1  UNL1        0.2569
     15 O          62.5611   84.7146   10.6116 O.3     1  UNL1       -0.4278
     16 N          63.5618   83.0132   12.3008 N.am    1  UNL1       -0.2443
     17 C          64.5585   81.9412   12.6285 C.3     1  UNL1        0.1183
     18 C          63.5577   83.6426   10.9393 C.2     1  UNL1        0.4053
     19 O          64.5503   83.2000    9.9054 O.2     1  UNL1       -0.2262
     20 C          62.5692   83.4559   13.3347 C.3     1  UNL1        0.0968
     21 C          61.4024   81.2754   14.1308 C.3     1  UNL1        0.0018
     22 C          62.1732   82.5241   14.4415 C.3     1  UNL1        0.0216
     23 O          63.5507   90.9957   13.7644 O.3     1  UNL1       -0.4780
     24 C          64.9910   91.4107   13.7069 C.3     1  UNL1        0.1663
     25 C          65.8777   91.2094   14.8999 C.3     1  UNL1        0.0435
     26 C          67.3180   91.6245   14.8424 C.3     1  UNL1        0.0041
     27 C          67.8716   92.2408   13.5919 C.3     1  UNL1        0.0058
     28 C          66.9848   92.4421   12.3989 C.3     1  UNL1        0.0401
     29 C          65.5446   92.0271   12.4564 C.3     1  UNL1        0.0490
     30 C          67.5384   93.0584   11.1485 C.2     1  UNL1        0.0501
     31 O          68.4277   92.2550   10.2465 O.co2   1  UNL1       -0.5492
     32 O          67.2026   94.4783   10.7999 O.co2   1  UNL1       -0.5492
@<TRIPOS>UNITY_ATOM_ATTR
31 1
charge -1
@<TRIPOS>BOND
     1    21    22    1
     2    22    20    1
     3    20    16    1
     4    16    17    1
     5    16    18   am
     6    18    19    2
     7    18    15    1
     8    15    14    1
     9    14     8    1
    10     8     9   ar
    11     9     1    1
    12     1     2   ar
    13     2     3   ar
    14     3     4   ar
    15     4    23    1
    16    24    23    1
    17    24    25    1
    18    25    26    1
    19    26    27    1
    20    27    28    1
    21    28    30    1
    22    30    31   ar
    23    30    32   ar
    24    28    29    1
    25     4     5   ar
    26     5     6    1
    27     5     7   ar
    28     9    10   ar
    29    10    11   ar
    30    11    12   ar
    31    12    13    1
    32    12     8   ar
    33     7     1   ar
    34    29    24    1
@<TRIPOS>MOLECULE
*****
 32 34 0 0 0
SMALL
GASTEIGER

@<TRIPOS>ATOM
      1 C          63.3906   84.7651   14.6992 C.ar    1  UNL1        0.1018
      2 C          64.1049   85.6642   13.7342 C.ar    1  UNL1        0.0239
      3 C          64.3499   87.1010   14.0886 C.ar    1  UNL1        0.0397
      4 C          63.8805   87.6386   15.4079 C.ar    1  UNL1        0.1518
      5 C          63.1662   86.7395   16.3729 C.ar    1  UNL1        0.0931
      6 C          62.6969   87.2772   17.6923 C.3     1  UNL1        0.0553
      7 N          62.9213   85.3027   16.0186 N.ar    1  UNL1       -0.2450
      8 C          63.2008   82.7381   12.9670 C.ar    1  UNL1        0.1218
      9 C          63.1456   83.3282   14.3449 C.ar    1  UNL1        0.1387
     10 N          62.8023   82.2292   15.3064 N.ar    1  UNL1       -0.1275
     11 N          62.6454   80.9599   14.5226 N.ar    1  UNL1       -0.0639
     12 N          62.8917   81.2744   13.0767 N.ar    1  UNL1       -0.2301
     13 C          62.8382   80.2969   11.9403 C.3     1  UNL1        0.1552
     14 C          63.5107   83.4813   11.7014 C.3     1  UNL1        0.2569
     15 O          62.3969   83.9234   10.7993 O.3     1  UNL1       -0.4278
     16 N          62.1318   86.1367    9.4648 N.am    1  UNL1       -0.2443
     17 C          61.7379   87.5831    9.4129 C.3     1  UNL1        0.1183
     18 C          62.0030   85.3698   10.7474 C.2     1  UNL1        0.4053
     19 O          61.4802   86.0494   11.9783 O.2     1  UNL1       -0.2262
     20 C          62.6546   85.4571    8.2339 C.3     1  UNL1        0.0968
     21 C          62.2142   84.3409    5.9296 C.3     1  UNL1        0.0018
     22 C          61.7260   85.1450    7.0979 C.3     1  UNL1        0.0216
     23 O          64.1255   89.0755   15.7622 O.3     1  UNL1       -0.4780
     24 C          64.3909   90.0800   14.6803 C.3     1  UNL1        0.1663
     25 C          65.5318   91.0444   14.8157 C.3     1  UNL1        0.0435
     26 C          65.7971   92.0489   13.7337 C.3     1  UNL1        0.0041
     27 C          64.9215   92.0890   12.5164 C.3     1  UNL1        0.0058
     28 C          63.7806   91.1247   12.3811 C.3     1  UNL1        0.0401
     29 C          63.5153   90.1202   13.4630 C.3     1  UNL1        0.0490
     30 C          62.9051   91.1648   11.1638 C.2     1  UNL1        0.0501
     31 O          63.4149   91.7774    9.8931 O.co2   1  UNL1       -0.5492
     32 O          61.5196   90.5922   11.2173 O.co2   1  UNL1       -0.5492
@<TRIPOS>UNITY_ATOM_ATTR
31 1
charge -1
@<TRIPOS>BOND
     1    21    22    1
     2    22    20    1
     3    20    16    1
     4    16    17    1
     5    16    18   am
     6    18    19    2
     7    18    15    1
     8    15    14    1
     9    14     8    1
    10     8     9   ar
    11     9     1    1
    12     1     2   ar
    13     2     3   ar
    14     3     4   ar
    15     4    23    1
    16    24    23    1
    17    24    25    1
    18    25    26    1
    19    26    27    1
    20    27    28    1
    21    28    30    1
    22    30    31   ar
    23    30    32   ar
    24    28    29    1
    25     4     5   ar
    26     5     6    1
    27     5     7   ar
    28     9    10   ar
    29    10    11   ar
    30    11    12   ar
    31    12    13    1
    32    12     8   ar
    33     7     1   ar
    34    29    24    1
@<TRIPOS>MOLECULE
*****
 32 34 0 0 0
SMALL
GASTEIGER

@<TRIPOS>ATOM
      1 C          63.6472   86.3384   14.3487 C.ar    1  UNL1        0.1018
      2 C          64.0039   87.3789   13.3289 C.ar    1  UNL1        0.0239
      3 C          64.0527   88.8262   13.7197 C.ar    1  UNL1        0.0397
      4 C          63.7448   89.2331   15.1302 C.ar    1  UNL1        0.1518
      5 C          63.3881   88.1925   16.1500 C.ar    1  UNL1        0.0931
      6 C          63.0802   88.5993   17.5606 C.3     1  UNL1        0.0553
      7 N          63.3393   86.7452   15.7592 N.ar    1  UNL1       -0.2450
      8 C          63.1785   84.3519   12.6226 C.ar    1  UNL1        0.1218
      9 C          63.5984   84.8909   13.9579 C.ar    1  UNL1        0.1387
     10 N          63.9609   83.7285   14.8338 N.ar    1  UNL1       -0.1275
     11 N          63.7651   82.4710   14.0399 N.ar    1  UNL1       -0.0639
     12 N          63.2815   82.8563   12.6732 N.ar    1  UNL1       -0.2301
     13 C          62.9578   81.9118   11.5538 C.3     1  UNL1        0.1552
     14 C          62.7337   85.1655   11.4436 C.3     1  UNL1        0.2569
     15 O          61.5757   86.1094   11.5776 O.3     1  UNL1       -0.4278
     16 N          60.7744   88.2321   10.3119 N.am    1  UNL1       -0.2443
     17 C          60.1815   88.8700    9.0907 C.3     1  UNL1        0.1183
     18 C          60.9827   86.7473   10.3563 C.2     1  UNL1        0.4053
     19 O          60.5982   85.9005    9.1795 O.2     1  UNL1       -0.2262
     20 C          61.1589   89.0789   11.4888 C.3     1  UNL1        0.0968
     21 C          63.0200   90.6393   10.5659 C.3     1  UNL1        0.0018
     22 C          61.7095   90.4575   11.2728 C.3     1  UNL1        0.0216
     23 O          63.7936   90.6805   15.5210 O.3     1  UNL1       -0.4780
     24 C          64.9280   91.5449   15.0563 C.3     1  UNL1        0.1663
     25 C          65.8041   92.2357   16.0590 C.3     1  UNL1        0.0435
     26 C          66.9385   93.1002   15.5943 C.3     1  UNL1        0.0041
     27 C          67.1967   93.2739   14.1269 C.3     1  UNL1        0.0058
     28 C          66.3206   92.5831   13.1243 C.3     1  UNL1        0.0401
     29 C          65.1862   91.7187   13.5889 C.3     1  UNL1        0.0490
     30 C          66.5788   92.7569   11.6569 C.2     1  UNL1        0.0501
     31 O          65.4802   93.2326   10.7532 O.co2   1  UNL1       -0.5492
     32 O          67.9357   92.4548   11.0933 O.co2   1  UNL1       -0.5492
@<TRIPOS>UNITY_ATOM_ATTR
31 1
charge -1
@<TRIPOS>BOND
     1    21    22    1
     2    22    20    1
     3    20    16    1
     4    16    17    1
     5    16    18   am
     6    18    19    2
     7    18    15    1
     8    15    14    1
     9    14     8    1
    10     8     9   ar
    11     9     1    1
    12     1     2   ar
    13     2     3   ar
    14     3     4   ar
    15     4    23    1
    16    24    23    1
    17    24    25    1
    18    25    26    1
    19    26    27    1
    20    27    28    1
    21    28    30    1
    22    30    31   ar
    23    30    32   ar
    24    28    29    1
    25     4     5   ar
    26     5     6    1
    27     5     7   ar
    28     9    10   ar
    29    10    11   ar
    30    11    12   ar
    31    12    13    1
    32    12     8   ar
    33     7     1   ar
    34    29    24    1
@<TRIPOS>MOLECULE
*****
 32 34 0 0 0
SMALL
GASTEIGER

@<TRIPOS>ATOM
      1 C          63.6613   89.5917   14.0718 C.ar    1  UNL1        0.1018
      2 C          64.1788   88.1896   14.1980 C.ar    1  UNL1        0.0239
      3 C          63.7051   87.1272   13.2509 C.ar    1  UNL1        0.0397
      4 C          62.7137   87.4671   12.1777 C.ar    1  UNL1        0.1518
      5 C          62.1961   88.8693   12.0516 C.ar    1  UNL1        0.0931
      6 C          61.2048   89.2091   10.9784 C.3     1  UNL1        0.0553
      7 N          62.6699   89.9316   12.9987 N.ar    1  UNL1       -0.2450
      8 C          65.4444   91.3821   14.9438 C.ar    1  UNL1        0.1218
      9 C          64.1350   90.6542   15.0189 C.ar    1  UNL1        0.1387
     10 N          63.3826   91.1751   16.2074 N.ar    1  UNL1       -0.1275
     11 N          64.2269   92.2250   16.8667 N.ar    1  UNL1       -0.0639
     12 N          65.5013   92.3530   16.0858 N.ar    1  UNL1       -0.2301
     13 C          66.6335   93.2876   16.3929 C.3     1  UNL1        0.1552
     14 C          66.5099   91.1755   13.9084 C.3     1  UNL1        0.2569
     15 O          67.0000   92.3362   13.0944 O.3     1  UNL1       -0.4278
     16 N          67.3178   92.4260   10.5175 N.am    1  UNL1       -0.2443
     17 C          68.1664   92.1862    9.3041 C.3     1  UNL1        0.1183
     18 C          67.8486   92.0963   11.8811 C.2     1  UNL1        0.4053
     19 O          69.2281   91.5267   12.0314 O.2     1  UNL1       -0.2262
     20 C          65.9383   92.9956   10.3672 C.3     1  UNL1        0.0968
     21 C          63.7265   91.6691   10.0534 C.3     1  UNL1        0.0018
     22 C          64.7612   92.2749   10.9548 C.3     1  UNL1        0.0216
     23 O          62.2400   86.4047   11.2306 O.3     1  UNL1       -0.4780
     24 C          62.8017   85.0167   11.3188 C.3     1  UNL1        0.1663
     25 C          63.4277   84.3828   10.1120 C.3     1  UNL1        0.0435
     26 C          63.9895   82.9947   10.2002 C.3     1  UNL1        0.0041
     27 C          63.9252   82.2405   11.4952 C.3     1  UNL1        0.0058
     28 C          63.2992   82.8743   12.7020 C.3     1  UNL1        0.0401
     29 C          62.7374   84.2624   12.6138 C.3     1  UNL1        0.0490
     30 C          63.2349   82.1201   13.9969 C.2     1  UNL1        0.0501
     31 O          63.2590   82.8633   15.2997 O.co2   1  UNL1       -0.5492
     32 O          63.1465   80.6227   13.9892 O.co2   1  UNL1       -0.5492
@<TRIPOS>UNITY_ATOM_ATTR
31 1
charge -1
@<TRIPOS>BOND
     1    21    22    1
     2    22    20    1
     3    20    16    1
     4    16    17    1
     5    16    18   am
     6    18    19    2
     7    18    15    1
     8    15    14    1
     9    14     8    1
    10     8     9   ar
    11     9     1    1
    12     1     2   ar
    13     2     3   ar
    14     3     4   ar
    15     4    23    1
    16    24    23    1
    17    24    25    1
    18    25    26    1
    19    26    27    1
    20    27    28    1
    21    28    30    1
    22    30    31   ar
    23    30    32   ar
    24    28    29    1
    25     4     5   ar
    26     5     6    1
    27     5     7   ar
    28     9    10   ar
    29    10    11   ar
    30    11    12   ar
    31    12    13    1
    32    12     8   ar
    33     7     1   ar
    34    29    24    1
