@<TRIPOS>MOLECULE
*****
 34 37 0 0 0
SMALL
GASTEIGER

@<TRIPOS>ATOM
      1 C          62.3467   89.1726   10.9655 C.ar    1  UNL1        0.1042
      2 C          63.0562   90.4915   10.8821 C.ar    1  UNL1        0.0335
      3 C          64.0198   90.8942   11.9588 C.ar    1  UNL1        0.1261
      4 C          64.2739   89.9780   13.1189 C.ar    1  UNL1        0.0234
      5 C          63.5644   88.6591   13.2024 C.ar    1  UNL1        0.0396
      6 C          62.6007   88.2564   12.1257 C.ar    1  UNL1        0.1549
      7 S          64.7294   92.2131   11.8753 S.O2    1  UNL1        0.0751
      8 O          64.4082   92.2932   10.4123 O.2     1  UNL1       -0.1499
      9 O          65.0505   92.1330   13.3383 O.2     1  UNL1       -0.1499
     10 N          65.4389   93.5321   11.7917 N.pl3   1  UNL1       -0.1925
     11 H          65.1356   94.2899   12.3421 H       1  UNL1        0.1758
     12 C          66.6106   93.6963   10.8697 C.ar    1  UNL1        0.1977
     13 N          67.6510   92.6575   10.5725 N.ar    1  UNL1       -0.1997
     14 C          68.6311   93.2474    9.6020 C.ar    1  UNL1        0.2082
     15 N          68.1962   94.6507    9.2995 N.ar    1  UNL1       -0.1840
     16 S          66.9475   94.9282   10.0829 S.2     1  UNL1        0.0508
     17 N          60.4195   88.3671    8.8121 N.1     1  UNL1       -0.1907
     18 C          61.3831   88.7698    9.8888 C.1     1  UNL1        0.1035
     19 O          61.8912   86.9374   12.2092 O.3     1  UNL1       -0.4528
     20 C          62.5484   85.6974   11.6798 C.ar    1  UNL1        0.1451
     21 C          62.6318   85.4661   10.2000 C.ar    1  UNL1        0.0383
     22 C          63.2891   84.2260    9.6706 C.ar    1  UNL1        0.0145
     23 C          63.8629   83.2172   10.6209 C.ar    1  UNL1        0.0579
     24 CL         64.5201   81.9772   10.0915 Cl      1  UNL1       -0.0822
     25 C          63.7795   83.4485   12.1006 C.ar    1  UNL1        0.0143
     26 C          63.1223   84.6885   12.6300 C.ar    1  UNL1        0.0362
     27 C          63.0389   84.9198   14.1098 C.2     1  UNL1        0.0404
     28 C          61.8049   84.7948   14.9535 C.2     1  UNL1        0.1209
     29 N          62.1783   85.1144   16.3708 N.2     1  UNL1       -0.1497
     30 N          63.6428   85.4369   16.4029 N.2     1  UNL1       -0.1554
     31 C          64.1747   85.3166   15.0055 C.3     1  UNL1        0.2030
     32 N          65.5934   85.5518   14.5789 N.3     1  UNL1       -0.2983
     33 H          66.0818   86.3409   14.9074 H       1  UNL1        0.1209
     34 H          66.0361   84.9170   13.9704 H       1  UNL1        0.1209
@<TRIPOS>BOND
     1    17    18    3
     2    18     1    1
     3     1     2   ar
     4     2     3   ar
     5     3     7    1
     6     7     8    2
     7     7     9    2
     8     7    10    1
     9    10    12    1
    10    12    13   ar
    11    13    14   ar
    12    14    15   ar
    13    15    16   ar
    14     3     4   ar
    15     4     5   ar
    16     5     6   ar
    17     6    19    1
    18    19    20    1
    19    20    21   ar
    20    21    22   ar
    21    22    23   ar
    22    23    24    1
    23    23    25   ar
    24    25    26   ar
    25    26    27    1
    26    27    28    2
    27    28    29    1
    28    29    30    2
    29    30    31    1
    30    31    32    1
    31     6     1   ar
    32    26    20   ar
    33    31    27    1
    34    16    12   ar
    35    10    11    1
    36    32    33    1
    37    32    34    1
@<TRIPOS>MOLECULE
*****
 34 37 0 0 0
SMALL
GASTEIGER

@<TRIPOS>ATOM
      1 C          63.8389   90.0039   13.3968 C.ar    1  UNL1        0.1042
      2 C          64.7191   91.2175   13.3502 C.ar    1  UNL1        0.0335
      3 C          64.8917   91.9699   12.0641 C.ar    1  UNL1        0.1261
      4 C          64.1842   91.5086   10.8245 C.ar    1  UNL1        0.0234
      5 C          63.3040   90.2950   10.8711 C.ar    1  UNL1        0.0396
      6 C          63.1313   89.5426   12.1572 C.ar    1  UNL1        0.1549
      7 S          65.7720   93.1837   12.0175 S.O2    1  UNL1        0.0751
      8 O          65.7813   93.1194   10.5190 O.2     1  UNL1       -0.1499
      9 O          65.7627   93.2479   13.5161 O.2     1  UNL1       -0.1499
     10 N          66.6522   94.3973   11.9709 N.pl3   1  UNL1       -0.1925
     11 H          67.1744   94.6574   12.7640 H       1  UNL1        0.1758
     12 C          66.7368   95.2148   10.7160 C.ar    1  UNL1        0.1977
     13 N          67.7800   95.0825    9.6464 N.ar    1  UNL1       -0.1997
     14 C          67.4811   96.0940    8.5797 C.ar    1  UNL1        0.2082
     15 N          66.2530   96.8513    8.9903 N.ar    1  UNL1       -0.1840
     16 S          65.7931   96.3079   10.3106 S.2     1  UNL1        0.0508
     17 N          63.4936   88.4991   15.9690 N.1     1  UNL1       -0.1907
     18 C          63.6662   89.2515   14.6829 C.1     1  UNL1        0.1035
     19 O          62.2511   88.3288   12.2037 O.3     1  UNL1       -0.4528
     20 C          61.4364   87.9468   11.0036 C.ar    1  UNL1        0.1451
     21 C          60.5874   88.9742   10.3155 C.ar    1  UNL1        0.0383
     22 C          59.7727   88.5921    9.1153 C.ar    1  UNL1        0.0145
     23 C          59.8069   87.1826    8.6034 C.ar    1  UNL1        0.0579
     24 CL         58.9922   86.8005    7.4034 Cl      1  UNL1       -0.0822
     25 C          60.6559   86.1551    9.2916 C.ar    1  UNL1        0.0143
     26 C          61.4706   86.5372   10.4917 C.ar    1  UNL1        0.0362
     27 C          62.3196   85.5098   11.1799 C.2     1  UNL1        0.0404
     28 C          62.4046   85.2845   12.6605 C.2     1  UNL1        0.1209
     29 N          63.3702   84.1627   12.9039 N.2     1  UNL1       -0.1497
     30 N          63.8820   83.6947   11.5739 N.2     1  UNL1       -0.1554
     31 C          63.2326   84.5272   10.5084 C.3     1  UNL1        0.2030
     32 N          63.4570   84.3996    9.0307 N.3     1  UNL1       -0.2983
     33 H          64.3715   84.3078    8.6778 H       1  UNL1        0.1209
     34 H          62.6898   84.4076    8.4139 H       1  UNL1        0.1209
@<TRIPOS>BOND
     1    17    18    3
     2    18     1    1
     3     1     2   ar
     4     2     3   ar
     5     3     7    1
     6     7     8    2
     7     7     9    2
     8     7    10    1
     9    10    12    1
    10    12    13   ar
    11    13    14   ar
    12    14    15   ar
    13    15    16   ar
    14     3     4   ar
    15     4     5   ar
    16     5     6   ar
    17     6    19    1
    18    19    20    1
    19    20    21   ar
    20    21    22   ar
    21    22    23   ar
    22    23    24    1
    23    23    25   ar
    24    25    26   ar
    25    26    27    1
    26    27    28    2
    27    28    29    1
    28    29    30    2
    29    30    31    1
    30    31    32    1
    31     6     1   ar
    32    26    20   ar
    33    31    27    1
    34    16    12   ar
    35    10    11    1
    36    32    33    1
    37    32    34    1
@<TRIPOS>MOLECULE
*****
 34 37 0 0 0
SMALL
GASTEIGER

@<TRIPOS>ATOM
      1 C          64.1524   88.1525   14.1667 C.ar    1  UNL1        0.1042
      2 C          64.7809   89.4334   14.6294 C.ar    1  UNL1        0.0335
      3 C          64.6414   90.6782   13.8042 C.ar    1  UNL1        0.1261
      4 C          63.8734   90.6421   12.5163 C.ar    1  UNL1        0.0234
      5 C          63.2449   89.3611   12.0536 C.ar    1  UNL1        0.0396
      6 C          63.3844   88.1163   12.8788 C.ar    1  UNL1        0.1549
      7 S          65.2699   91.9592   14.2670 S.O2    1  UNL1        0.0751
      8 O          65.9725   92.0908   12.9483 O.2     1  UNL1       -0.1499
      9 O          64.5674   91.8275   15.5857 O.2     1  UNL1       -0.1499
     10 N          65.8985   93.2401   14.7297 N.pl3   1  UNL1       -0.1925
     11 H          65.4044   94.0879   14.6496 H       1  UNL1        0.1758
     12 C          67.2798   93.2294   15.3145 C.ar    1  UNL1        0.1977
     13 N          68.1360   94.4330   15.5755 N.ar    1  UNL1       -0.1997
     14 C          69.4328   93.9607   16.1632 C.ar    1  UNL1        0.2082
     15 N          69.3779   92.4651   16.2654 N.ar    1  UNL1       -0.1840
     16 S          68.0473   92.0132   15.7408 S.2     1  UNL1        0.0508
     17 N          64.4315   85.6628   15.8172 N.1     1  UNL1       -0.1907
     18 C          64.2920   86.9076   14.9919 C.1     1  UNL1        0.1035
     19 O          62.7559   86.8353   12.4160 O.3     1  UNL1       -0.4528
     20 C          61.8824   86.8262   11.1966 C.ar    1  UNL1        0.1451
     21 C          60.9344   87.9609   10.9447 C.ar    1  UNL1        0.0383
     22 C          60.0609   87.9517    9.7252 C.ar    1  UNL1        0.0145
     23 C          60.1355   86.8078    8.7578 C.ar    1  UNL1        0.0579
     24 CL         59.2620   86.7987    7.5384 Cl      1  UNL1       -0.0822
     25 C          61.0836   85.6731    9.0098 C.ar    1  UNL1        0.0143
     26 C          61.9570   85.6823   10.2291 C.ar    1  UNL1        0.0362
     27 C          62.9051   84.5475   10.4811 C.2     1  UNL1        0.0404
     28 C          63.8225   83.9242    9.4711 C.2     1  UNL1        0.1209
     29 N          64.5867   82.8283   10.1532 N.2     1  UNL1       -0.1497
     30 N          64.1416   82.7743   11.5846 N.2     1  UNL1       -0.1554
     31 C          63.1023   83.8368   11.7873 C.3     1  UNL1        0.2030
     32 N          62.3860   84.1360   13.0708 N.3     1  UNL1       -0.2983
     33 H          62.0230   83.4003   13.6150 H       1  UNL1        0.1209
     34 H          62.2789   85.0681   13.3690 H       1  UNL1        0.1209
@<TRIPOS>BOND
     1    17    18    3
     2    18     1    1
     3     1     2   ar
     4     2     3   ar
     5     3     7    1
     6     7     8    2
     7     7     9    2
     8     7    10    1
     9    10    12    1
    10    12    13   ar
    11    13    14   ar
    12    14    15   ar
    13    15    16   ar
    14     3     4   ar
    15     4     5   ar
    16     5     6   ar
    17     6    19    1
    18    19    20    1
    19    20    21   ar
    20    21    22   ar
    21    22    23   ar
    22    23    24    1
    23    23    25   ar
    24    25    26   ar
    25    26    27    1
    26    27    28    2
    27    28    29    1
    28    29    30    2
    29    30    31    1
    30    31    32    1
    31     6     1   ar
    32    26    20   ar
    33    31    27    1
    34    16    12   ar
    35    10    11    1
    36    32    33    1
    37    32    34    1
@<TRIPOS>MOLECULE
*****
 34 37 0 0 0
SMALL
GASTEIGER

@<TRIPOS>ATOM
      1 C          63.7247   90.0508   13.4362 C.ar    1  UNL1        0.1042
      2 C          64.6556   91.2206   13.3148 C.ar    1  UNL1        0.0335
      3 C          64.8898   91.8571   11.9768 C.ar    1  UNL1        0.1261
      4 C          64.1932   91.3236   10.7603 C.ar    1  UNL1        0.0234
      5 C          63.2623   90.1537   10.8816 C.ar    1  UNL1        0.0396
      6 C          63.0281   89.5173   12.2196 C.ar    1  UNL1        0.1549
      7 S          65.8208   93.0270   11.8554 S.O2    1  UNL1        0.0751
      8 O          66.0094   92.7257   10.3982 O.2     1  UNL1       -0.1499
      9 O          65.6322   93.3283   13.3127 O.2     1  UNL1       -0.1499
     10 N          66.7517   94.1969   11.7341 N.pl3   1  UNL1       -0.1925
     11 H          67.4302   94.3601   12.4285 H       1  UNL1        0.1758
     12 C          66.6488   95.1180   10.5546 C.ar    1  UNL1        0.1977
     13 N          67.5740   95.1456    9.3742 N.ar    1  UNL1       -0.1997
     14 C          67.0997   96.2179    8.4386 C.ar    1  UNL1        0.2082
     15 N          65.8815   96.8529    9.0408 N.ar    1  UNL1       -0.1840
     16 S          65.6028   96.1732   10.3485 S.2     1  UNL1        0.0508
     17 N          63.2562   88.7779   16.1121 N.1     1  UNL1       -0.1907
     18 C          63.4905   89.4144   14.7741 C.1     1  UNL1        0.1035
     19 O          62.0971   88.3474   12.3410 O.3     1  UNL1       -0.4528
     20 C          62.6425   86.9501   12.3250 C.ar    1  UNL1        0.1451
     21 C          63.5400   86.4826   13.4322 C.ar    1  UNL1        0.0383
     22 C          64.0853   85.0853   13.4161 C.ar    1  UNL1        0.0145
     23 C          63.7332   84.1556   12.2930 C.ar    1  UNL1        0.0579
     24 CL         64.2785   82.7584   12.2770 Cl      1  UNL1       -0.0822
     25 C          62.8357   84.6231   11.1858 C.ar    1  UNL1        0.0143
     26 C          62.2903   86.0203   11.2017 C.ar    1  UNL1        0.0362
     27 C          61.3928   86.4879   10.0945 C.2     1  UNL1        0.0404
     28 C          60.1990   87.3835   10.2459 C.2     1  UNL1        0.1209
     29 N          59.5999   87.5910    8.8865 N.2     1  UNL1       -0.1497
     30 N          60.4234   86.8236    7.8949 N.2     1  UNL1       -0.1554
     31 C          61.5314   86.1419    8.6416 C.3     1  UNL1        0.2030
     32 N          62.5919   85.2676    8.0407 N.3     1  UNL1       -0.2983
     33 H          62.3467   84.5787    7.3815 H       1  UNL1        0.1209
     34 H          63.5331   85.3827    8.3055 H       1  UNL1        0.1209
@<TRIPOS>BOND
     1    17    18    3
     2    18     1    1
     3     1     2   ar
     4     2     3   ar
     5     3     7    1
     6     7     8    2
     7     7     9    2
     8     7    10    1
     9    10    12    1
    10    12    13   ar
    11    13    14   ar
    12    14    15   ar
    13    15    16   ar
    14     3     4   ar
    15     4     5   ar
    16     5     6   ar
    17     6    19    1
    18    19    20    1
    19    20    21   ar
    20    21    22   ar
    21    22    23   ar
    22    23    24    1
    23    23    25   ar
    24    25    26   ar
    25    26    27    1
    26    27    28    2
    27    28    29    1
    28    29    30    2
    29    30    31    1
    30    31    32    1
    31     6     1   ar
    32    26    20   ar
    33    31    27    1
    34    16    12   ar
    35    10    11    1
    36    32    33    1
    37    32    34    1
@<TRIPOS>MOLECULE
*****
 34 37 0 0 0
SMALL
GASTEIGER

@<TRIPOS>ATOM
      1 C          63.1532   88.9777   12.5376 C.ar    1  UNL1        0.1042
      2 C          63.1246   87.4824   12.6526 C.ar    1  UNL1        0.0335
      3 C          63.8436   86.8030   13.7801 C.ar    1  UNL1        0.1261
      4 C          64.5912   87.6189   14.7928 C.ar    1  UNL1        0.0234
      5 C          64.6197   89.1142   14.6778 C.ar    1  UNL1        0.0396
      6 C          63.9007   89.7936   13.5502 C.ar    1  UNL1        0.1549
      7 S          63.8151   85.3077   13.8951 S.O2    1  UNL1        0.0751
      8 O          65.1537   85.3341   14.5713 O.2     1  UNL1       -0.1499
      9 O          62.4764   85.2812   13.2189 O.2     1  UNL1       -0.1499
     10 N          63.7866   83.8124   14.0100 N.pl3   1  UNL1       -0.1925
     11 H          63.8420   83.3856   14.8955 H       1  UNL1        0.1758
     12 C          63.6737   82.9673   12.7758 C.ar    1  UNL1        0.1977
     13 N          64.3576   83.2243   11.4658 N.ar    1  UNL1       -0.1997
     14 C          63.9637   82.1326   10.5153 C.ar    1  UNL1        0.2082
     15 N          63.0363   81.2011   11.2380 N.ar    1  UNL1       -0.1840
     16 S          62.8571   81.7170   12.6351 S.2     1  UNL1        0.0508
     17 N          61.7151   90.3365   10.2824 N.1     1  UNL1       -0.1907
     18 C          62.4341   89.6571   11.4100 C.1     1  UNL1        0.1035
     19 O          63.9293   91.2890   13.4353 O.3     1  UNL1       -0.4528
     20 C          64.8452   91.9479   12.4469 C.ar    1  UNL1        0.1451
     21 C          64.4628   92.0132   10.9979 C.ar    1  UNL1        0.0383
     22 C          65.3788   92.6721   10.0095 C.ar    1  UNL1        0.0145
     23 C          66.6770   93.2657   10.4701 C.ar    1  UNL1        0.0579
     24 CL         67.5929   93.9246    9.4817 Cl      1  UNL1       -0.0822
     25 C          67.0594   93.2003   11.9191 C.ar    1  UNL1        0.0143
     26 C          66.1435   92.5415   12.9075 C.ar    1  UNL1        0.0362
     27 C          66.5259   92.4761   14.3565 C.2     1  UNL1        0.0404
     28 C          65.5919   92.6162   15.5220 C.2     1  UNL1        0.1209
     29 N          66.3982   92.4859   16.7802 N.2     1  UNL1       -0.1497
     30 N          67.8303   92.2652   16.3923 N.2     1  UNL1       -0.1554
     31 C          67.9092   92.2592   14.8944 C.3     1  UNL1        0.2030
     32 N          69.1530   92.0695   14.0778 N.3     1  UNL1       -0.2983
     33 H          69.9766   92.5537   14.3156 H       1  UNL1        0.1209
     34 H          69.1459   91.4608   13.3040 H       1  UNL1        0.1209
@<TRIPOS>BOND
     1    17    18    3
     2    18     1    1
     3     1     2   ar
     4     2     3   ar
     5     3     7    1
     6     7     8    2
     7     7     9    2
     8     7    10    1
     9    10    12    1
    10    12    13   ar
    11    13    14   ar
    12    14    15   ar
    13    15    16   ar
    14     3     4   ar
    15     4     5   ar
    16     5     6   ar
    17     6    19    1
    18    19    20    1
    19    20    21   ar
    20    21    22   ar
    21    22    23   ar
    22    23    24    1
    23    23    25   ar
    24    25    26   ar
    25    26    27    1
    26    27    28    2
    27    28    29    1
    28    29    30    2
    29    30    31    1
    30    31    32    1
    31     6     1   ar
    32    26    20   ar
    33    31    27    1
    34    16    12   ar
    35    10    11    1
    36    32    33    1
    37    32    34    1
@<TRIPOS>MOLECULE
*****
 34 37 0 0 0
SMALL
GASTEIGER

@<TRIPOS>ATOM
      1 C          62.5735   89.3132   11.4580 C.ar    1  UNL1        0.1042
      2 C          63.3732   90.5595   11.6975 C.ar    1  UNL1        0.0335
      3 C          64.3053   90.6387   12.8701 C.ar    1  UNL1        0.1261
      4 C          64.4378   89.4718   13.8031 C.ar    1  UNL1        0.0234
      5 C          63.6381   88.2255   13.5636 C.ar    1  UNL1        0.0396
      6 C          62.7060   88.1463   12.3911 C.ar    1  UNL1        0.1549
      7 S          65.1050   91.8850   13.1096 S.O2    1  UNL1        0.0751
      8 O          65.4510   91.9432   11.6512 O.2     1  UNL1       -0.1499
      9 O          64.7591   91.8268   14.5680 O.2     1  UNL1       -0.1499
     10 N          65.9047   93.1313   13.3490 N.pl3   1  UNL1       -0.1925
     11 H          65.5752   93.9985   13.0195 H       1  UNL1        0.1758
     12 C          67.2065   93.0562   14.0905 C.ar    1  UNL1        0.1977
     13 N          68.4326   92.3150   13.6463 N.ar    1  UNL1       -0.1997
     14 C          69.4947   92.5099   14.6876 C.ar    1  UNL1        0.2082
     15 N          68.9248   93.3716   15.7753 N.ar    1  UNL1       -0.1840
     16 S          67.5107   93.7092   15.4062 S.2     1  UNL1        0.0508
     17 N          60.7093   89.1547    9.1129 N.1     1  UNL1       -0.1907
     18 C          61.6414   89.2340   10.2855 C.1     1  UNL1        0.1035
     19 O          61.9063   86.9000   12.1516 O.3     1  UNL1       -0.4528
     20 C          62.5720   85.6775   11.5928 C.ar    1  UNL1        0.1451
     21 C          62.6691   85.4889   10.1079 C.ar    1  UNL1        0.0383
     22 C          63.3349   84.2663    9.5491 C.ar    1  UNL1        0.0145
     23 C          63.9035   83.2324   10.4752 C.ar    1  UNL1        0.0579
     24 CL         64.5692   82.0100    9.9164 Cl      1  UNL1       -0.0822
     25 C          63.8064   83.4211   11.9602 C.ar    1  UNL1        0.0143
     26 C          63.1407   84.6436   12.5190 C.ar    1  UNL1        0.0362
     27 C          63.0436   84.8322   14.0039 C.2     1  UNL1        0.0404
     28 C          61.7900   84.7474   14.8233 C.2     1  UNL1        0.1209
     29 N          62.1547   85.0015   16.2560 N.2     1  UNL1       -0.1497
     30 N          63.6336   85.2434   16.3220 N.2     1  UNL1       -0.1554
     31 C          64.1829   85.1387   14.9301 C.3     1  UNL1        0.2030
     32 N          65.6195   85.3104   14.5340 N.3     1  UNL1       -0.2983
     33 H          66.1434   86.0614   14.8957 H       1  UNL1        0.1209
     34 H          66.0384   84.6722   13.9124 H       1  UNL1        0.1209
@<TRIPOS>BOND
     1    17    18    3
     2    18     1    1
     3     1     2   ar
     4     2     3   ar
     5     3     7    1
     6     7     8    2
     7     7     9    2
     8     7    10    1
     9    10    12    1
    10    12    13   ar
    11    13    14   ar
    12    14    15   ar
    13    15    16   ar
    14     3     4   ar
    15     4     5   ar
    16     5     6   ar
    17     6    19    1
    18    19    20    1
    19    20    21   ar
    20    21    22   ar
    21    22    23   ar
    22    23    24    1
    23    23    25   ar
    24    25    26   ar
    25    26    27    1
    26    27    28    2
    27    28    29    1
    28    29    30    2
    29    30    31    1
    30    31    32    1
    31     6     1   ar
    32    26    20   ar
    33    31    27    1
    34    16    12   ar
    35    10    11    1
    36    32    33    1
    37    32    34    1
@<TRIPOS>MOLECULE
*****
 34 37 0 0 0
SMALL
GASTEIGER

@<TRIPOS>ATOM
      1 C          62.5111   89.9918   10.9164 C.ar    1  UNL1        0.1042
      2 C          63.3327   91.2454   10.9731 C.ar    1  UNL1        0.0335
      3 C          64.3269   91.4412   12.0791 C.ar    1  UNL1        0.1261
      4 C          64.4995   90.3834   13.1284 C.ar    1  UNL1        0.0234
      5 C          63.6779   89.1297   13.0717 C.ar    1  UNL1        0.0396
      6 C          62.6837   88.9339   11.9657 C.ar    1  UNL1        0.1549
      7 S          65.1485   92.6950   12.1357 S.O2    1  UNL1        0.0751
      8 O          65.4077   92.4592   13.5942 O.2     1  UNL1       -0.1499
      9 O          64.8894   92.9307   10.6772 O.2     1  UNL1       -0.1499
     10 N          65.9701   93.9486   12.1924 N.pl3   1  UNL1       -0.1925
     11 H          66.0465   94.4494   13.0366 H       1  UNL1        0.1758
     12 C          66.6755   94.4394   10.9628 C.ar    1  UNL1        0.1977
     13 N          67.6631   93.6624   10.1438 N.ar    1  UNL1       -0.1997
     14 C          68.1150   94.5361    9.0112 C.ar    1  UNL1        0.2082
     15 N          67.4066   95.8529    9.1304 N.ar    1  UNL1       -0.1840
     16 S          66.5169   95.7931   10.3366 S.2     1  UNL1        0.0508
     17 N          60.5227   89.6002    8.7044 N.1     1  UNL1       -0.1907
     18 C          61.5169   89.7960    9.8104 C.1     1  UNL1        0.1035
     19 O          61.8621   87.6802   11.9090 O.3     1  UNL1       -0.4528
     20 C          62.5331   86.3402   11.9722 C.ar    1  UNL1        0.1451
     21 C          63.3691   85.9754   13.1631 C.ar    1  UNL1        0.0383
     22 C          64.0402   84.6354   13.2262 C.ar    1  UNL1        0.0145
     23 C          63.8753   83.6601   12.0985 C.ar    1  UNL1        0.0579
     24 CL         64.5464   82.3202   12.1617 Cl      1  UNL1       -0.0822
     25 C          63.0394   84.0249   10.9077 C.ar    1  UNL1        0.0143
     26 C          62.3683   85.3649   10.8445 C.ar    1  UNL1        0.0362
     27 C          61.5323   85.7297    9.6536 C.2     1  UNL1        0.0404
     28 C          60.1717   86.3602    9.6913 C.2     1  UNL1        0.1209
     29 N          59.7088   86.5481    8.2769 N.2     1  UNL1       -0.1497
     30 N          60.7831   86.0338    7.3652 N.2     1  UNL1       -0.1554
     31 C          61.9101   85.5280    8.2161 C.3     1  UNL1        0.2030
     32 N          63.1902   84.9261    7.7169 N.3     1  UNL1       -0.2983
     33 H          63.1707   84.2542    6.9977 H       1  UNL1        0.1209
     34 H          64.0500   85.2030    8.1086 H       1  UNL1        0.1209
@<TRIPOS>BOND
     1    17    18    3
     2    18     1    1
     3     1     2   ar
     4     2     3   ar
     5     3     7    1
     6     7     8    2
     7     7     9    2
     8     7    10    1
     9    10    12    1
    10    12    13   ar
    11    13    14   ar
    12    14    15   ar
    13    15    16   ar
    14     3     4   ar
    15     4     5   ar
    16     5     6   ar
    17     6    19    1
    18    19    20    1
    19    20    21   ar
    20    21    22   ar
    21    22    23   ar
    22    23    24    1
    23    23    25   ar
    24    25    26   ar
    25    26    27    1
    26    27    28    2
    27    28    29    1
    28    29    30    2
    29    30    31    1
    30    31    32    1
    31     6     1   ar
    32    26    20   ar
    33    31    27    1
    34    16    12   ar
    35    10    11    1
    36    32    33    1
    37    32    34    1
@<TRIPOS>MOLECULE
*****
 34 37 0 0 0
SMALL
GASTEIGER

@<TRIPOS>ATOM
      1 C          63.8623   89.7422   13.5015 C.ar    1  UNL1        0.1042
      2 C          64.6673   91.0076   13.4767 C.ar    1  UNL1        0.0335
      3 C          64.7714   91.8056   12.2109 C.ar    1  UNL1        0.1261
      4 C          64.0704   91.3383   10.9699 C.ar    1  UNL1        0.0234
      5 C          63.2654   90.0728   10.9947 C.ar    1  UNL1        0.0396
      6 C          63.1614   89.2748   12.2605 C.ar    1  UNL1        0.1549
      7 S          65.5764   93.0711   12.1861 S.O2    1  UNL1        0.0751
      8 O          65.2969   93.2202   10.7200 O.2     1  UNL1       -0.1499
      9 O          65.8559   92.9221   13.6523 O.2     1  UNL1       -0.1499
     10 N          66.3814   94.3365   12.1613 N.pl3   1  UNL1       -0.1925
     11 H          66.7099   94.7276   13.0030 H       1  UNL1        0.1758
     12 C          66.6860   95.0062   10.8540 C.ar    1  UNL1        0.1977
     13 N          67.6573   94.5199    9.8196 N.ar    1  UNL1       -0.1997
     14 C          67.6444   95.4928    8.6779 C.ar    1  UNL1        0.2082
     15 N          66.6650   96.5804    9.0069 N.ar    1  UNL1       -0.1840
     16 S          66.0728   96.2796   10.3518 S.2     1  UNL1        0.0508
     17 N          63.6543   88.1461   16.0332 N.1     1  UNL1       -0.1907
     18 C          63.7583   88.9442   14.7674 C.1     1  UNL1        0.1035
     19 O          62.3563   88.0093   12.2853 O.3     1  UNL1       -0.4528
     20 C          61.9093   87.3796   10.9994 C.ar    1  UNL1        0.1451
     21 C          62.6345   86.1832   10.4583 C.ar    1  UNL1        0.0383
     22 C          62.1873   85.5534    9.1724 C.ar    1  UNL1        0.0145
     23 C          61.0151   86.1200    8.4277 C.ar    1  UNL1        0.0579
     24 CL         60.5680   85.4902    7.1418 Cl      1  UNL1       -0.0822
     25 C          60.2899   87.3164    8.9688 C.ar    1  UNL1        0.0143
     26 C          60.7369   87.9461   10.2546 C.ar    1  UNL1        0.0362
     27 C          60.0117   89.1425   10.7957 C.2     1  UNL1        0.0404
     28 C          59.9234   90.4899   10.1424 C.2     1  UNL1        0.1209
     29 N          59.1046   91.3817   11.0281 N.2     1  UNL1       -0.1497
     30 N          58.6869   90.5854   12.2287 N.2     1  UNL1       -0.1554
     31 C          59.2475   89.2016   12.0851 C.3     1  UNL1        0.2030
     32 N          59.0743   88.0746   13.0598 N.3     1  UNL1       -0.2983
     33 H          59.1927   88.2350   14.0239 H       1  UNL1        0.1209
     34 H          58.8423   87.1745   12.7354 H       1  UNL1        0.1209
@<TRIPOS>BOND
     1    17    18    3
     2    18     1    1
     3     1     2   ar
     4     2     3   ar
     5     3     7    1
     6     7     8    2
     7     7     9    2
     8     7    10    1
     9    10    12    1
    10    12    13   ar
    11    13    14   ar
    12    14    15   ar
    13    15    16   ar
    14     3     4   ar
    15     4     5   ar
    16     5     6   ar
    17     6    19    1
    18    19    20    1
    19    20    21   ar
    20    21    22   ar
    21    22    23   ar
    22    23    24    1
    23    23    25   ar
    24    25    26   ar
    25    26    27    1
    26    27    28    2
    27    28    29    1
    28    29    30    2
    29    30    31    1
    30    31    32    1
    31     6     1   ar
    32    26    20   ar
    33    31    27    1
    34    16    12   ar
    35    10    11    1
    36    32    33    1
    37    32    34    1
@<TRIPOS>MOLECULE
*****
 34 37 0 0 0
SMALL
GASTEIGER

@<TRIPOS>ATOM
      1 C          63.4742   89.4665   12.3994 C.ar    1  UNL1        0.1042
      2 C          63.2696   87.9811   12.4410 C.ar    1  UNL1        0.0335
      3 C          63.7251   87.1944   13.6341 C.ar    1  UNL1        0.1261
      4 C          64.3853   87.8930   14.7856 C.ar    1  UNL1        0.0234
      5 C          64.5898   89.3784   14.7441 C.ar    1  UNL1        0.0396
      6 C          64.1343   90.1651   13.5509 C.ar    1  UNL1        0.1549
      7 S          63.5206   85.7089   13.6756 S.O2    1  UNL1        0.0751
      8 O          64.5880   85.5912   14.7228 O.2     1  UNL1       -0.1499
      9 O          62.4531   85.8266   12.6284 O.2     1  UNL1       -0.1499
     10 N          63.3160   84.2236   13.7172 N.pl3   1  UNL1       -0.1925
     11 H          63.0617   83.7851   14.5612 H       1  UNL1        0.1758
     12 C          63.4989   83.4061   12.4728 C.ar    1  UNL1        0.1977
     13 N          64.4743   83.6877   11.3685 N.ar    1  UNL1       -0.1997
     14 C          64.3168   82.6193   10.3274 C.ar    1  UNL1        0.2082
     15 N          63.2441   81.6774   10.7884 N.ar    1  UNL1       -0.1840
     16 S          62.7387   82.1638   12.1143 S.2     1  UNL1        0.0508
     17 N          62.5631   91.0400   10.0132 N.1     1  UNL1       -0.1907
     18 C          63.0186   90.2532   11.2063 C.1     1  UNL1        0.1035
     19 O          64.3389   91.6506   13.5094 O.3     1  UNL1       -0.4528
     20 C          65.4884   92.2702   14.2472 C.ar    1  UNL1        0.1451
     21 C          65.6648   92.0118   15.7143 C.ar    1  UNL1        0.0383
     22 C          66.8144   92.6316   16.4521 C.ar    1  UNL1        0.0145
     23 C          67.7877   93.5096   15.7229 C.ar    1  UNL1        0.0579
     24 CL         68.9372   94.1293   16.4607 Cl      1  UNL1       -0.0822
     25 C          67.6113   93.7680   14.2559 C.ar    1  UNL1        0.0143
     26 C          66.4618   93.1484   13.5181 C.ar    1  UNL1        0.0362
     27 C          66.2854   93.4067   12.0510 C.2     1  UNL1        0.0404
     28 C          66.3065   92.3724   10.9648 C.2     1  UNL1        0.1209
     29 N          66.0912   93.0713    9.6551 N.2     1  UNL1       -0.1497
     30 N          65.9370   94.5375    9.9319 N.2     1  UNL1       -0.1554
     31 C          66.0571   94.7448   11.4126 C.3     1  UNL1        0.2030
     32 N          65.9650   96.0593   12.1292 N.3     1  UNL1       -0.2983
     33 H          66.4469   96.8443   11.7816 H       1  UNL1        0.1209
     34 H          65.4226   96.1372   12.9471 H       1  UNL1        0.1209
@<TRIPOS>BOND
     1    17    18    3
     2    18     1    1
     3     1     2   ar
     4     2     3   ar
     5     3     7    1
     6     7     8    2
     7     7     9    2
     8     7    10    1
     9    10    12    1
    10    12    13   ar
    11    13    14   ar
    12    14    15   ar
    13    15    16   ar
    14     3     4   ar
    15     4     5   ar
    16     5     6   ar
    17     6    19    1
    18    19    20    1
    19    20    21   ar
    20    21    22   ar
    21    22    23   ar
    22    23    24    1
    23    23    25   ar
    24    25    26   ar
    25    26    27    1
    26    27    28    2
    27    28    29    1
    28    29    30    2
    29    30    31    1
    30    31    32    1
    31     6     1   ar
    32    26    20   ar
    33    31    27    1
    34    16    12   ar
    35    10    11    1
    36    32    33    1
    37    32    34    1
