@<TRIPOS>MOLECULE
*****
 41 45 0 0 0
SMALL
GASTEIGER

@<TRIPOS>ATOM
      1 C          61.7020   88.1008   10.1759 C.3     1  UNL1        0.0758
      2 C          61.1126   89.4732   10.0377 C.3     1  UNL1        0.0370
      3 C          60.1350   89.7621    8.9373 C.3     1  UNL1        0.0741
      4 N          59.7469   88.6787    7.9752 N.3     1  UNL1       -0.2688
      5 C          60.3364   87.3064    8.1135 C.3     1  UNL1        0.0741
      6 C          61.3139   87.0174    9.2138 C.3     1  UNL1        0.0370
      7 O          61.6275   85.4575   11.5928 O.2     1  UNL1       -0.2528
      8 C          62.6423   86.4902   11.9848 C.2     1  UNL1        0.3010
      9 N          62.6796   87.8118   11.2764 N.am    1  UNL1       -0.2905
     10 N          63.6199   86.2012   13.0852 N.am    1  UNL1       -0.2848
     11 H          63.3457   88.4896   11.5336 H       1  UNL1        0.1509
     12 H          64.2860   86.8790   13.3424 H       1  UNL1        0.1513
     13 C          63.5826   84.8796   13.7936 C.3     1  UNL1        0.1199
     14 C          63.4186   83.6121   13.0083 C.ar    1  UNL1       -0.0025
     15 C          62.5013   82.5347   13.5062 C.ar    1  UNL1       -0.0026
     16 C          62.3372   81.2673   12.7209 C.ar    1  UNL1       -0.0003
     17 C          63.0905   81.0772   11.4378 C.ar    1  UNL1       -0.0000
     18 C          64.0078   82.1545   10.9399 C.ar    1  UNL1       -0.0003
     19 C          64.1718   83.4220   11.7251 C.ar    1  UNL1       -0.0026
     20 C          63.7094   84.8254   15.2872 C.3     1  UNL1        0.1515
     21 N          63.3980   86.0396   16.1109 N.ar    1  UNL1       -0.2474
     22 C          62.8091   86.0420   17.4904 C.ar    1  UNL1        0.0968
     23 C          62.6680   87.4686   17.9318 C.ar    1  UNL1        0.0427
     24 C          63.1697   88.3480   16.8250 C.ar    1  UNL1        0.1217
     25 N          63.6209   87.4649   15.6997 N.ar    1  UNL1       -0.1676
     26 C          58.7693   88.9678    6.8748 C.3     1  UNL1        0.1007
     27 C          59.0356   90.0842    5.9091 C.ar    1  UNL1        0.0129
     28 C          58.0648   91.1564    5.5116 C.ar    1  UNL1        0.0176
     29 C          58.7486   92.0594    4.5282 C.ar    1  UNL1        0.0799
     30 N          60.1420   91.5453    4.3179 N.ar    1  UNL1       -0.3038
     31 C          60.3194   90.3246    5.1714 C.ar    1  UNL1        0.0772
     32 C          61.1764   92.1464    3.4131 C.ar    1  UNL1        0.0640
     33 C          60.8209   93.3106    2.5368 C.ar    1  UNL1        0.0175
     34 C          61.8553   93.9117    1.6320 C.ar    1  UNL1        0.0053
     35 C          63.2452   93.3485    1.6035 C.ar    1  UNL1        0.0715
     36 C          63.6008   92.1842    2.4798 C.ar    1  UNL1        0.0053
     37 C          62.5664   91.5831    3.3846 C.ar    1  UNL1        0.0175
     38 C          64.2796   93.9496    0.6987 C.3     1  UNL1        0.4186
     39 F          65.3139   94.5508   -0.2062 F       1  UNL1       -0.1659
     40 F          65.1021   92.7001    0.8089 F       1  UNL1       -0.1659
     41 F          63.4570   95.1992    0.5883 F       1  UNL1       -0.1659
@<TRIPOS>BOND
     1     7     8    2
     2     8     9   am
     3     9     1    1
     4     1     2    1
     5     2     3    1
     6     3     4    1
     7     4    26    1
     8    26    27    1
     9    27    28   ar
    10    28    29   ar
    11    29    30   ar
    12    30    32    1
    13    32    33   ar
    14    33    34   ar
    15    34    35   ar
    16    35    38    1
    17    38    39    1
    18    38    40    1
    19    38    41    1
    20    35    36   ar
    21    36    37   ar
    22    30    31   ar
    23     4     5    1
    24     5     6    1
    25     8    10   am
    26    10    13    1
    27    13    20    1
    28    20    21    1
    29    21    22   ar
    30    22    23   ar
    31    23    24   ar
    32    24    25   ar
    33    13    14    1
    34    14    15   ar
    35    15    16   ar
    36    16    17   ar
    37    17    18   ar
    38    18    19   ar
    39     6     1    1
    40    25    21   ar
    41    19    14   ar
    42    31    27   ar
    43    37    32   ar
    44     9    11    1
    45    10    12    1
@<TRIPOS>MOLECULE
*****
 41 45 0 0 0
SMALL
GASTEIGER

@<TRIPOS>ATOM
      1 C          61.7695   88.2892   10.1432 C.3     1  UNL1        0.0758
      2 C          61.2605   87.1472    9.3146 C.3     1  UNL1        0.0370
      3 C          60.2605   87.3984    8.2252 C.3     1  UNL1        0.0741
      4 N          59.7695   88.7916    7.9644 N.3     1  UNL1       -0.2688
      5 C          60.2786   89.9336    8.7931 C.3     1  UNL1        0.0741
      6 C          61.2786   89.6824    9.8825 C.3     1  UNL1        0.0370
      7 O          62.1332   90.3012   12.3387 O.2     1  UNL1       -0.2528
      8 C          62.9514   89.0440   12.3304 C.2     1  UNL1        0.3010
      9 N          62.7696   88.0380   11.2327 N.am    1  UNL1       -0.2905
     10 N          63.9515   88.7928   13.4198 N.am    1  UNL1       -0.2848
     11 H          63.3066   87.2129   11.2273 H       1  UNL1        0.1509
     12 H          64.4885   87.9677   13.4144 H       1  UNL1        0.1513
     13 C          64.1333   89.7988   14.5175 C.3     1  UNL1        0.1199
     14 C          64.9391   91.0398   14.2715 C.ar    1  UNL1       -0.0025
     15 C          65.0521   91.5979   12.8838 C.ar    1  UNL1       -0.0026
     16 C          65.8579   92.8389   12.6378 C.ar    1  UNL1       -0.0003
     17 C          66.5507   93.5219   13.7795 C.ar    1  UNL1       -0.0000
     18 C          66.4377   92.9639   15.1672 C.ar    1  UNL1       -0.0003
     19 C          65.6319   91.7228   15.4133 C.ar    1  UNL1       -0.0026
     20 C          63.5093   89.5638   15.8612 C.3     1  UNL1        0.1515
     21 N          63.3234   88.1640   16.3673 N.ar    1  UNL1       -0.2474
     22 C          62.7668   87.7770   17.7053 C.ar    1  UNL1        0.0968
     23 C          62.7609   86.2793   17.7892 C.ar    1  UNL1        0.0427
     24 C          63.3139   85.7408   16.5030 C.ar    1  UNL1        0.1217
     25 N          63.6616   86.9056   15.6242 N.ar    1  UNL1       -0.1676
     26 C          58.7695   89.0428    6.8750 C.3     1  UNL1        0.1007
     27 C          59.0116   90.1304    5.8708 C.ar    1  UNL1        0.0129
     28 C          58.0026   91.1346    5.3982 C.ar    1  UNL1        0.0176
     29 C          58.6726   92.0296    4.3982 C.ar    1  UNL1        0.0799
     30 N          60.0958   91.5786    4.2528 N.ar    1  UNL1       -0.3038
     31 C          60.3053   90.4048    5.1629 C.ar    1  UNL1        0.0772
     32 C          61.1282   92.1934    3.3550 C.ar    1  UNL1        0.0640
     33 C          62.5232   91.6427    3.3289 C.ar    1  UNL1        0.0175
     34 C          63.5556   92.2575    2.4311 C.ar    1  UNL1        0.0053
     35 C          63.1930   93.4230    1.5593 C.ar    1  UNL1        0.0715
     36 C          61.7980   93.9737    1.5852 C.ar    1  UNL1        0.0053
     37 C          60.7656   93.3589    2.4831 C.ar    1  UNL1        0.0175
     38 C          64.2254   94.0377    0.6614 C.3     1  UNL1        0.4186
     39 F          65.2578   94.6526   -0.2365 F       1  UNL1       -0.1659
     40 F          65.0328   92.7752    0.7253 F       1  UNL1       -0.1659
     41 F          63.4180   95.3004    0.5976 F       1  UNL1       -0.1659
@<TRIPOS>BOND
     1     7     8    2
     2     8     9   am
     3     9     1    1
     4     1     2    1
     5     2     3    1
     6     3     4    1
     7     4    26    1
     8    26    27    1
     9    27    28   ar
    10    28    29   ar
    11    29    30   ar
    12    30    32    1
    13    32    33   ar
    14    33    34   ar
    15    34    35   ar
    16    35    38    1
    17    38    39    1
    18    38    40    1
    19    38    41    1
    20    35    36   ar
    21    36    37   ar
    22    30    31   ar
    23     4     5    1
    24     5     6    1
    25     8    10   am
    26    10    13    1
    27    13    20    1
    28    20    21    1
    29    21    22   ar
    30    22    23   ar
    31    23    24   ar
    32    24    25   ar
    33    13    14    1
    34    14    15   ar
    35    15    16   ar
    36    16    17   ar
    37    17    18   ar
    38    18    19   ar
    39     6     1    1
    40    25    21   ar
    41    19    14   ar
    42    31    27   ar
    43    37    32   ar
    44     9    11    1
    45    10    12    1
@<TRIPOS>MOLECULE
*****
 41 45 0 0 0
SMALL
GASTEIGER

@<TRIPOS>ATOM
      1 C          59.5201   92.4115    4.1461 C.3     1  UNL1        0.0758
      2 C          58.1113   92.0873    4.5459 C.3     1  UNL1        0.0370
      3 C          57.8345   90.9027    5.4235 C.3     1  UNL1        0.0741
      4 N          58.9666   90.0424    5.9012 N.3     1  UNL1       -0.2688
      5 C          60.3754   90.3666    5.5014 C.3     1  UNL1        0.0741
      6 C          60.6522   91.5512    4.6238 C.3     1  UNL1        0.0370
      7 O          59.6494   92.0744    1.1679 O.2     1  UNL1       -0.2528
      8 C          59.8616   93.4276    1.7794 C.2     1  UNL1        0.3010
      9 N          59.7970   93.5961    3.2685 N.am    1  UNL1       -0.2905
     10 N          60.1385   94.6122    0.9018 N.am    1  UNL1       -0.2848
     11 H          59.9363   94.4843    3.6699 H       1  UNL1        0.1509
     12 H          60.2778   95.5003    1.3032 H       1  UNL1        0.1513
     13 C          60.2031   94.4436   -0.5872 C.3     1  UNL1        0.1199
     14 C          58.9731   94.0536   -1.3519 C.ar    1  UNL1       -0.0025
     15 C          57.6271   94.5461   -0.9092 C.ar    1  UNL1       -0.0026
     16 C          56.3970   94.1560   -1.6739 C.ar    1  UNL1       -0.0003
     17 C          56.5129   93.2736   -2.8813 C.ar    1  UNL1       -0.0000
     18 C          57.8588   92.7812   -3.3241 C.ar    1  UNL1       -0.0003
     19 C          59.0889   93.1712   -2.5594 C.ar    1  UNL1       -0.0026
     20 C          61.4978   94.6651   -1.3116 C.3     1  UNL1        0.1515
     21 N          62.8010   94.4268   -0.6082 N.ar    1  UNL1       -0.2474
     22 C          64.0733   95.1907   -0.8266 C.ar    1  UNL1        0.0968
     23 C          65.1194   94.6189    0.0837 C.ar    1  UNL1        0.0427
     24 C          64.4937   93.5015    0.8647 C.ar    1  UNL1        0.1217
     25 N          63.0608   93.3829    0.4371 N.ar    1  UNL1       -0.1676
     26 C          58.6897   88.8578    6.7788 C.3     1  UNL1        0.1007
     27 C          59.6546   88.4882    7.8662 C.ar    1  UNL1        0.0129
     28 C          60.2095   89.4165    8.9055 C.ar    1  UNL1        0.0176
     29 C          61.1318   88.6274    9.7868 C.ar    1  UNL1        0.0799
     30 N          61.1469   87.2113    9.2922 N.ar    1  UNL1       -0.3038
     31 C          60.2339   87.1253    8.1051 C.ar    1  UNL1        0.0772
     32 C          61.9363   86.0800    9.8811 C.ar    1  UNL1        0.0640
     33 C          62.8334   85.2560    9.0059 C.ar    1  UNL1        0.0175
     34 C          63.6228   84.1246    9.5948 C.ar    1  UNL1        0.0053
     35 C          63.5152   83.8174   11.0590 C.ar    1  UNL1        0.0715
     36 C          62.6181   84.6414   11.9343 C.ar    1  UNL1        0.0053
     37 C          61.8287   85.7727   11.3454 C.ar    1  UNL1        0.0175
     38 C          64.3046   82.6861   11.6479 C.3     1  UNL1        0.4186
     39 F          65.0941   81.5547   12.2368 F       1  UNL1       -0.1659
     40 F          64.3294   83.3921   12.9711 F       1  UNL1       -0.1659
     41 F          64.2799   81.9799   10.3247 F       1  UNL1       -0.1659
@<TRIPOS>BOND
     1     7     8    2
     2     8     9   am
     3     9     1    1
     4     1     2    1
     5     2     3    1
     6     3     4    1
     7     4    26    1
     8    26    27    1
     9    27    28   ar
    10    28    29   ar
    11    29    30   ar
    12    30    32    1
    13    32    33   ar
    14    33    34   ar
    15    34    35   ar
    16    35    38    1
    17    38    39    1
    18    38    40    1
    19    38    41    1
    20    35    36   ar
    21    36    37   ar
    22    30    31   ar
    23     4     5    1
    24     5     6    1
    25     8    10   am
    26    10    13    1
    27    13    20    1
    28    20    21    1
    29    21    22   ar
    30    22    23   ar
    31    23    24   ar
    32    24    25   ar
    33    13    14    1
    34    14    15   ar
    35    15    16   ar
    36    16    17   ar
    37    17    18   ar
    38    18    19   ar
    39     6     1    1
    40    25    21   ar
    41    19    14   ar
    42    31    27   ar
    43    37    32   ar
    44     9    11    1
    45    10    12    1
@<TRIPOS>MOLECULE
*****
 41 45 0 0 0
SMALL
GASTEIGER

@<TRIPOS>ATOM
      1 C          59.6683   92.5426    4.1143 C.3     1  UNL1        0.0758
      2 C          58.2596   92.2564    4.5427 C.3     1  UNL1        0.0370
      3 C          57.9602   91.0448    5.3748 C.3     1  UNL1        0.0741
      4 N          59.0696   90.1194    5.7784 N.3     1  UNL1       -0.2688
      5 C          60.4783   90.4056    5.3500 C.3     1  UNL1        0.0741
      6 C          60.7776   91.6172    4.5179 C.3     1  UNL1        0.0370
      7 O          59.5066   92.3851    1.1227 O.2     1  UNL1       -0.2528
      8 C          59.8869   93.6755    1.7864 C.2     1  UNL1        0.3010
      9 N          59.9677   93.7542    3.2821 N.am    1  UNL1       -0.2905
     10 N          60.1863   94.8871    0.9543 N.am    1  UNL1       -0.2848
     11 H          60.2173   94.6011    3.7177 H       1  UNL1        0.1509
     12 H          60.4358   95.7340    1.3899 H       1  UNL1        0.1513
     13 C          60.1054   94.8084   -0.5414 C.3     1  UNL1        0.1199
     14 C          61.2749   94.2978   -1.3298 C.ar    1  UNL1       -0.0025
     15 C          61.1385   94.0591   -2.8045 C.ar    1  UNL1       -0.0026
     16 C          62.3080   93.5486   -3.5929 C.ar    1  UNL1       -0.0003
     17 C          63.6139   93.2767   -2.9067 C.ar    1  UNL1       -0.0000
     18 C          63.7502   93.5153   -1.4322 C.ar    1  UNL1       -0.0003
     19 C          62.5807   94.0259   -0.6437 C.ar    1  UNL1       -0.0026
     20 C          58.8551   95.2402   -1.2487 C.3     1  UNL1        0.1515
     21 N          57.7581   94.2498   -1.5048 N.ar    1  UNL1       -0.2474
     22 C          56.2888   94.5500   -1.5355 C.ar    1  UNL1        0.0968
     23 C          55.5604   93.2710   -1.8248 C.ar    1  UNL1        0.0427
     24 C          56.5795   92.1804   -1.9728 C.ar    1  UNL1        0.1217
     25 N          57.9378   92.7853   -1.7750 N.ar    1  UNL1       -0.1676
     26 C          58.7701   88.9078    6.6106 C.3     1  UNL1        0.1007
     27 C          59.6740   88.5378    7.7490 C.ar    1  UNL1        0.0129
     28 C          60.1335   89.4545    8.8438 C.ar    1  UNL1        0.0176
     29 C          61.0205   88.6694    9.7640 C.ar    1  UNL1        0.0799
     30 N          61.1092   87.2674    9.2380 N.ar    1  UNL1       -0.3038
     31 C          60.2770   87.1861    7.9927 C.ar    1  UNL1        0.0772
     32 C          61.8926   86.1441    9.8499 C.ar    1  UNL1        0.0640
     33 C          61.7886   85.8715   11.3212 C.ar    1  UNL1        0.0175
     34 C          62.5720   84.7482   11.9330 C.ar    1  UNL1        0.0053
     35 C          63.4593   83.8974   11.0736 C.ar    1  UNL1        0.0715
     36 C          63.5632   84.1698    9.6022 C.ar    1  UNL1        0.0053
     37 C          62.7799   85.2932    8.9904 C.ar    1  UNL1        0.0175
     38 C          64.2426   82.7740   11.6855 C.3     1  UNL1        0.4186
     39 F          65.0260   81.6506   12.2973 F       1  UNL1       -0.1659
     40 F          64.4367   83.5876   12.9306 F       1  UNL1       -0.1659
     41 F          64.0485   81.9604   10.4403 F       1  UNL1       -0.1659
@<TRIPOS>BOND
     1     7     8    2
     2     8     9   am
     3     9     1    1
     4     1     2    1
     5     2     3    1
     6     3     4    1
     7     4    26    1
     8    26    27    1
     9    27    28   ar
    10    28    29   ar
    11    29    30   ar
    12    30    32    1
    13    32    33   ar
    14    33    34   ar
    15    34    35   ar
    16    35    38    1
    17    38    39    1
    18    38    40    1
    19    38    41    1
    20    35    36   ar
    21    36    37   ar
    22    30    31   ar
    23     4     5    1
    24     5     6    1
    25     8    10   am
    26    10    13    1
    27    13    20    1
    28    20    21    1
    29    21    22   ar
    30    22    23   ar
    31    23    24   ar
    32    24    25   ar
    33    13    14    1
    34    14    15   ar
    35    15    16   ar
    36    16    17   ar
    37    17    18   ar
    38    18    19   ar
    39     6     1    1
    40    25    21   ar
    41    19    14   ar
    42    31    27   ar
    43    37    32   ar
    44     9    11    1
    45    10    12    1
@<TRIPOS>MOLECULE
*****
 41 45 0 0 0
SMALL
GASTEIGER

@<TRIPOS>ATOM
      1 C          61.6305   86.9493    8.9317 C.3     1  UNL1        0.0758
      2 C          60.7484   86.3164    7.8966 C.3     1  UNL1        0.0370
      3 C          59.6619   87.1193    7.2448 C.3     1  UNL1        0.0741
      4 N          59.4575   88.5550    7.6280 N.3     1  UNL1       -0.2688
      5 C          60.3396   89.1879    8.6631 C.3     1  UNL1        0.0741
      6 C          61.4261   88.3850    9.3149 C.3     1  UNL1        0.0370
      7 O          61.2162   85.8161   11.6784 O.2     1  UNL1       -0.2528
      8 C          62.5099   85.5799   10.9569 C.2     1  UNL1        0.3010
      9 N          62.7170   86.1464    9.5835 N.am    1  UNL1       -0.2905
     10 N          63.5965   84.7770   11.6087 N.am    1  UNL1       -0.2848
     11 H          63.5661   85.9913    9.1100 H       1  UNL1        0.1509
     12 H          64.4455   84.6219   11.1352 H       1  UNL1        0.1513
     13 C          63.3893   84.2105   12.9821 C.3     1  UNL1        0.1199
     14 C          62.8633   82.8154   13.1463 C.ar    1  UNL1       -0.0025
     15 C          63.2548   81.7463   12.1696 C.ar    1  UNL1       -0.0026
     16 C          62.7288   80.3513   12.3339 C.ar    1  UNL1       -0.0003
     17 C          61.8112   80.0252   13.4748 C.ar    1  UNL1       -0.0000
     18 C          61.4197   81.0941   14.4515 C.ar    1  UNL1       -0.0003
     19 C          61.9458   82.4893   14.2873 C.ar    1  UNL1       -0.0026
     20 C          63.7082   85.0390   14.1911 C.3     1  UNL1        0.1515
     21 N          63.8519   86.5267   14.0643 N.ar    1  UNL1       -0.2474
     22 C          64.4818   87.4408   15.0730 C.ar    1  UNL1        0.0968
     23 C          64.4101   88.8405   14.5386 C.ar    1  UNL1        0.0427
     24 C          63.7360   88.7915   13.1994 C.ar    1  UNL1        0.1217
     25 N          63.3910   87.3614   12.9063 N.ar    1  UNL1       -0.1676
     26 C          58.3709   89.3579    6.9762 C.3     1  UNL1        0.1007
     27 C          58.7103   90.3403    5.8947 C.ar    1  UNL1        0.0129
     28 C          57.7479   91.2647    5.2096 C.ar    1  UNL1        0.0176
     29 C          58.5144   92.0666    4.2000 C.ar    1  UNL1        0.0799
     30 N          59.9506   91.6378    4.2611 N.ar    1  UNL1       -0.3038
     31 C          60.0716   90.5709    5.3085 C.ar    1  UNL1        0.0772
     32 C          61.0692   92.1807    3.4220 C.ar    1  UNL1        0.0640
     33 C          62.4065   91.5014    3.4247 C.ar    1  UNL1        0.0175
     34 C          63.5252   92.0442    2.5857 C.ar    1  UNL1        0.0053
     35 C          63.3065   93.2663    1.7440 C.ar    1  UNL1        0.0715
     36 C          61.9692   93.9456    1.7413 C.ar    1  UNL1        0.0053
     37 C          60.8505   93.4028    2.5803 C.ar    1  UNL1        0.0175
     38 C          64.4251   93.8091    0.9050 C.3     1  UNL1        0.4186
     39 F          65.5438   94.3519    0.0659 F       1  UNL1       -0.1659
     40 F          65.0128   94.4704    2.1164 F       1  UNL1       -0.1659
     41 F          63.8375   93.1478   -0.3064 F       1  UNL1       -0.1659
@<TRIPOS>BOND
     1     7     8    2
     2     8     9   am
     3     9     1    1
     4     1     2    1
     5     2     3    1
     6     3     4    1
     7     4    26    1
     8    26    27    1
     9    27    28   ar
    10    28    29   ar
    11    29    30   ar
    12    30    32    1
    13    32    33   ar
    14    33    34   ar
    15    34    35   ar
    16    35    38    1
    17    38    39    1
    18    38    40    1
    19    38    41    1
    20    35    36   ar
    21    36    37   ar
    22    30    31   ar
    23     4     5    1
    24     5     6    1
    25     8    10   am
    26    10    13    1
    27    13    20    1
    28    20    21    1
    29    21    22   ar
    30    22    23   ar
    31    23    24   ar
    32    24    25   ar
    33    13    14    1
    34    14    15   ar
    35    15    16   ar
    36    16    17   ar
    37    17    18   ar
    38    18    19   ar
    39     6     1    1
    40    25    21   ar
    41    19    14   ar
    42    31    27   ar
    43    37    32   ar
    44     9    11    1
    45    10    12    1
@<TRIPOS>MOLECULE
*****
 41 45 0 0 0
SMALL
GASTEIGER

@<TRIPOS>ATOM
      1 C          59.6216   92.4757    4.2304 C.3     1  UNL1        0.0758
      2 C          58.2239   92.1979    4.6985 C.3     1  UNL1        0.0370
      3 C          57.9344   90.9682    5.5073 C.3     1  UNL1        0.0741
      4 N          59.0426   90.0164    5.8479 N.3     1  UNL1       -0.2688
      5 C          60.4403   90.2943    5.3797 C.3     1  UNL1        0.0741
      6 C          60.7298   91.5239    4.5710 C.3     1  UNL1        0.0370
      7 O          59.5707   92.3465    1.2336 O.2     1  UNL1       -0.2528
      8 C          59.8857   93.6408    1.9232 C.2     1  UNL1        0.3010
      9 N          59.9111   93.7054    3.4216 N.am    1  UNL1       -0.2905
     10 N          60.1752   94.8705    1.1144 N.am    1  UNL1       -0.2848
     11 H          60.1179   94.5549    3.8742 H       1  UNL1        0.1509
     12 H          60.3820   95.7200    1.5670 H       1  UNL1        0.1513
     13 C          60.1497   94.8058   -0.3840 C.3     1  UNL1        0.1199
     14 C          61.3528   94.3161   -1.1340 C.ar    1  UNL1       -0.0025
     15 C          61.2212   93.8884   -2.5658 C.ar    1  UNL1       -0.0026
     16 C          62.4243   93.3986   -3.3159 C.ar    1  UNL1       -0.0003
     17 C          63.7591   93.3366   -2.6343 C.ar    1  UNL1       -0.0000
     18 C          63.8907   93.7642   -1.2026 C.ar    1  UNL1       -0.0003
     19 C          62.6876   94.2540   -0.4524 C.ar    1  UNL1       -0.0026
     20 C          58.9212   95.2310   -1.1322 C.3     1  UNL1        0.1515
     21 N          57.8185   94.2460   -1.3849 N.ar    1  UNL1       -0.2474
     22 C          56.3695   94.5772   -1.5862 C.ar    1  UNL1        0.0968
     23 C          55.6267   93.2927   -1.8064 C.ar    1  UNL1        0.0427
     24 C          56.6167   92.1677   -1.7412 C.ar    1  UNL1        0.1217
     25 N          57.9713   92.7568   -1.4807 N.ar    1  UNL1       -0.1676
     26 C          58.7530   88.7867    6.6567 C.3     1  UNL1        0.1007
     27 C          59.6090   88.4495    7.8413 C.ar    1  UNL1        0.0129
     28 C          59.7650   87.0912    8.4582 C.ar    1  UNL1        0.0176
     29 C          60.7118   87.2135    9.6153 C.ar    1  UNL1        0.0799
     30 N          61.1409   88.6475    9.7135 N.ar    1  UNL1       -0.3038
     31 C          60.4594   89.4113    8.6171 C.ar    1  UNL1        0.0772
     32 C          62.0856   89.2175   10.7296 C.ar    1  UNL1        0.0640
     33 C          62.4862   90.6610   10.6547 C.ar    1  UNL1        0.0175
     34 C          63.4309   91.2309   11.6708 C.ar    1  UNL1        0.0053
     35 C          63.9751   90.3574   12.7619 C.ar    1  UNL1        0.0715
     36 C          63.5746   88.9138   12.8370 C.ar    1  UNL1        0.0053
     37 C          62.6298   88.3438   11.8208 C.ar    1  UNL1        0.0175
     38 C          64.9198   90.9274   13.7781 C.3     1  UNL1        0.4186
     39 F          65.8646   91.4975   14.7942 F       1  UNL1       -0.1659
     40 F          65.0217   89.5838   14.4370 F       1  UNL1       -0.1659
     41 F          64.8180   92.2711   13.1191 F       1  UNL1       -0.1659
@<TRIPOS>BOND
     1     7     8    2
     2     8     9   am
     3     9     1    1
     4     1     2    1
     5     2     3    1
     6     3     4    1
     7     4    26    1
     8    26    27    1
     9    27    28   ar
    10    28    29   ar
    11    29    30   ar
    12    30    32    1
    13    32    33   ar
    14    33    34   ar
    15    34    35   ar
    16    35    38    1
    17    38    39    1
    18    38    40    1
    19    38    41    1
    20    35    36   ar
    21    36    37   ar
    22    30    31   ar
    23     4     5    1
    24     5     6    1
    25     8    10   am
    26    10    13    1
    27    13    20    1
    28    20    21    1
    29    21    22   ar
    30    22    23   ar
    31    23    24   ar
    32    24    25   ar
    33    13    14    1
    34    14    15   ar
    35    15    16   ar
    36    16    17   ar
    37    17    18   ar
    38    18    19   ar
    39     6     1    1
    40    25    21   ar
    41    19    14   ar
    42    31    27   ar
    43    37    32   ar
    44     9    11    1
    45    10    12    1
@<TRIPOS>MOLECULE
*****
 41 45 0 0 0
SMALL
GASTEIGER

@<TRIPOS>ATOM
      1 C          61.6432   86.7704    9.1197 C.3     1  UNL1        0.0758
      2 C          60.7492   86.1296    8.0999 C.3     1  UNL1        0.0370
      3 C          59.6691   86.9334    7.4386 C.3     1  UNL1        0.0741
      4 N          59.4830   88.3780    7.7973 N.3     1  UNL1       -0.2688
      5 C          60.3770   89.0187    8.8171 C.3     1  UNL1        0.0741
      6 C          61.4571   88.2149    9.4783 C.3     1  UNL1        0.0370
      7 O          61.3170   85.8722   11.9635 O.2     1  UNL1       -0.2528
      8 C          62.5602   85.5175   11.2028 C.2     1  UNL1        0.3010
      9 N          62.7233   85.9666    9.7810 N.am    1  UNL1       -0.2905
     10 N          63.6404   84.7137   11.8641 N.am    1  UNL1       -0.2848
     11 H          63.5393   85.7338    9.2818 H       1  UNL1        0.1509
     12 H          64.4564   84.4809   11.3649 H       1  UNL1        0.1513
     13 C          63.4773   84.2646   13.2860 C.3     1  UNL1        0.1199
     14 C          63.4556   85.2755   14.3939 C.ar    1  UNL1       -0.0025
     15 C          64.1034   86.6145   14.2003 C.ar    1  UNL1       -0.0026
     16 C          64.0816   87.6254   15.3082 C.ar    1  UNL1       -0.0003
     17 C          63.4121   87.2974   16.6098 C.ar    1  UNL1       -0.0000
     18 C          62.7643   85.9584   16.8035 C.ar    1  UNL1       -0.0003
     19 C          62.7860   84.9474   15.6955 C.ar    1  UNL1       -0.0026
     20 C          63.3359   82.8047   13.5999 C.3     1  UNL1        0.1515
     21 N          63.1916   81.8089   12.4874 N.ar    1  UNL1       -0.2474
     22 C          62.6678   80.4095   12.6192 C.ar    1  UNL1        0.0968
     23 C          62.6982   79.7734   11.2612 C.ar    1  UNL1        0.0427
     24 C          63.2407   80.7796   10.2899 C.ar    1  UNL1        0.1217
     25 N          63.5456   82.0376   11.0479 N.ar    1  UNL1       -0.1676
     26 C          58.4028   89.1818    7.1360 C.3     1  UNL1        0.1007
     27 C          58.7530   90.1679    6.0613 C.ar    1  UNL1        0.0129
     28 C          57.8090   91.1348    5.4104 C.ar    1  UNL1        0.0176
     29 C          58.5812   91.9248    4.3957 C.ar    1  UNL1        0.0799
     30 N          60.0026   91.4460    4.4195 N.ar    1  UNL1       -0.3038
     31 C          60.1088   90.3602    5.4489 C.ar    1  UNL1        0.0772
     32 C          61.1213   91.9624    3.5641 C.ar    1  UNL1        0.0640
     33 C          60.8990   93.1496    2.6748 C.ar    1  UNL1        0.0175
     34 C          62.0177   93.6660    1.8194 C.ar    1  UNL1        0.0053
     35 C          63.3588   92.9952    1.8532 C.ar    1  UNL1        0.0715
     36 C          63.5813   91.8079    2.7425 C.ar    1  UNL1        0.0053
     37 C          62.4625   91.2915    3.5979 C.ar    1  UNL1        0.0175
     38 C          64.4775   93.5115    0.9978 C.3     1  UNL1        0.4186
     39 F          65.5962   94.0279    0.1423 F       1  UNL1       -0.1659
     40 F          65.2297   93.9216    2.2291 F       1  UNL1       -0.1659
     41 F          63.7253   93.1015   -0.2335 F       1  UNL1       -0.1659
@<TRIPOS>BOND
     1     7     8    2
     2     8     9   am
     3     9     1    1
     4     1     2    1
     5     2     3    1
     6     3     4    1
     7     4    26    1
     8    26    27    1
     9    27    28   ar
    10    28    29   ar
    11    29    30   ar
    12    30    32    1
    13    32    33   ar
    14    33    34   ar
    15    34    35   ar
    16    35    38    1
    17    38    39    1
    18    38    40    1
    19    38    41    1
    20    35    36   ar
    21    36    37   ar
    22    30    31   ar
    23     4     5    1
    24     5     6    1
    25     8    10   am
    26    10    13    1
    27    13    20    1
    28    20    21    1
    29    21    22   ar
    30    22    23   ar
    31    23    24   ar
    32    24    25   ar
    33    13    14    1
    34    14    15   ar
    35    15    16   ar
    36    16    17   ar
    37    17    18   ar
    38    18    19   ar
    39     6     1    1
    40    25    21   ar
    41    19    14   ar
    42    31    27   ar
    43    37    32   ar
    44     9    11    1
    45    10    12    1
@<TRIPOS>MOLECULE
*****
 41 45 0 0 0
SMALL
GASTEIGER

@<TRIPOS>ATOM
      1 C          61.8031   87.8365    9.7837 C.3     1  UNL1        0.0758
      2 C          61.4270   89.2867    9.7089 C.3     1  UNL1        0.0370
      3 C          60.3562   89.7357    8.7594 C.3     1  UNL1        0.0741
      4 N          59.6615   88.7347    7.8846 N.3     1  UNL1       -0.2688
      5 C          60.0375   87.2845    7.9594 C.3     1  UNL1        0.0741
      6 C          61.1083   86.8355    8.9089 C.3     1  UNL1        0.0370
      7 O          61.7110   88.6866   12.6593 O.2     1  UNL1       -0.2528
      8 C          62.8279   87.8124   12.1710 C.2     1  UNL1        0.3010
      9 N          62.8739   87.3874   10.7333 N.am    1  UNL1       -0.2905
     10 N          63.8987   87.3633   13.1206 N.am    1  UNL1       -0.2848
     11 H          63.6070   86.8136   10.4128 H       1  UNL1        0.1509
     12 H          64.6318   86.7895   12.8002 H       1  UNL1        0.1513
     13 C          63.8526   87.7883   14.5584 C.3     1  UNL1        0.1199
     14 C          64.1279   89.2158   14.9276 C.ar    1  UNL1       -0.0025
     15 C          63.4801   89.8151   16.1406 C.ar    1  UNL1       -0.0026
     16 C          63.7553   91.2426   16.5098 C.ar    1  UNL1       -0.0003
     17 C          64.6783   92.0710   15.6660 C.ar    1  UNL1       -0.0000
     18 C          65.3260   91.4718   14.4530 C.ar    1  UNL1       -0.0003
     19 C          65.0508   90.0442   14.0838 C.ar    1  UNL1       -0.0026
     20 C          63.5314   86.7858   15.6269 C.3     1  UNL1        0.1515
     21 N          63.3769   85.3363   15.2734 N.ar    1  UNL1       -0.2474
     22 C          64.4774   84.4108   14.8466 C.ar    1  UNL1        0.0968
     23 C          63.8755   83.0603   14.5940 C.ar    1  UNL1        0.0427
     24 C          62.4029   83.1511   14.8647 C.ar    1  UNL1        0.1217
     25 N          62.0948   84.5578   15.2846 N.ar    1  UNL1       -0.1676
     26 C          58.5906   89.1838    6.9350 C.3     1  UNL1        0.1007
     27 C          58.8918   90.2341    5.9074 C.ar    1  UNL1        0.0129
     28 C          57.9268   91.2545    5.3805 C.ar    1  UNL1        0.0176
     29 C          58.6495   92.0995    4.3737 C.ar    1  UNL1        0.0799
     30 N          60.0612   91.6014    4.2783 N.ar    1  UNL1       -0.3038
     31 C          60.2109   90.4485    5.2262 C.ar    1  UNL1        0.0772
     32 C          61.1346   92.1583    3.3908 C.ar    1  UNL1        0.0640
     33 C          62.5050   91.5486    3.3981 C.ar    1  UNL1        0.0175
     34 C          63.5784   92.1056    2.5106 C.ar    1  UNL1        0.0053
     35 C          63.2813   93.2722    1.6159 C.ar    1  UNL1        0.0715
     36 C          61.9109   93.8820    1.6087 C.ar    1  UNL1        0.0053
     37 C          60.8375   93.3251    2.4961 C.ar    1  UNL1        0.0175
     38 C          64.3547   93.8292    0.7285 C.3     1  UNL1        0.4186
     39 F          65.4281   94.3862   -0.1591 F       1  UNL1       -0.1659
     40 F          65.2087   94.1002    1.9315 F       1  UNL1       -0.1659
     41 F          63.5007   93.5582   -0.4746 F       1  UNL1       -0.1659
@<TRIPOS>BOND
     1     7     8    2
     2     8     9   am
     3     9     1    1
     4     1     2    1
     5     2     3    1
     6     3     4    1
     7     4    26    1
     8    26    27    1
     9    27    28   ar
    10    28    29   ar
    11    29    30   ar
    12    30    32    1
    13    32    33   ar
    14    33    34   ar
    15    34    35   ar
    16    35    38    1
    17    38    39    1
    18    38    40    1
    19    38    41    1
    20    35    36   ar
    21    36    37   ar
    22    30    31   ar
    23     4     5    1
    24     5     6    1
    25     8    10   am
    26    10    13    1
    27    13    20    1
    28    20    21    1
    29    21    22   ar
    30    22    23   ar
    31    23    24   ar
    32    24    25   ar
    33    13    14    1
    34    14    15   ar
    35    15    16   ar
    36    16    17   ar
    37    17    18   ar
    38    18    19   ar
    39     6     1    1
    40    25    21   ar
    41    19    14   ar
    42    31    27   ar
    43    37    32   ar
    44     9    11    1
    45    10    12    1
@<TRIPOS>MOLECULE
*****
 41 45 0 0 0
SMALL
GASTEIGER

@<TRIPOS>ATOM
      1 C          59.1593   91.7599    4.4780 C.3     1  UNL1        0.0758
      2 C          57.9499   91.2216    5.1832 C.3     1  UNL1        0.0370
      3 C          58.1019   90.1486    6.2202 C.3     1  UNL1        0.0741
      4 N          59.4635   89.6138    6.5520 N.3     1  UNL1       -0.2688
      5 C          60.6730   90.1520    5.8467 C.3     1  UNL1        0.0741
      6 C          60.5209   91.2251    4.8098 C.3     1  UNL1        0.0370
      7 O          61.4094   92.3425    2.5811 O.2     1  UNL1       -0.2528
      8 C          60.1323   93.1242    2.4925 C.2     1  UNL1        0.3010
      9 N          59.0073   92.8330    3.4409 N.am    1  UNL1       -0.2905
     10 N          59.9803   94.1973    1.4555 N.am    1  UNL1       -0.2848
     11 H          58.1691   93.3461    3.3828 H       1  UNL1        0.1509
     12 H          59.1421   94.7105    1.3973 H       1  UNL1        0.1513
     13 C          61.1053   94.4886    0.5071 C.3     1  UNL1        0.1199
     14 C          62.4228   94.9753    1.0334 C.ar    1  UNL1       -0.0025
     15 C          62.5260   96.3374    1.6532 C.ar    1  UNL1       -0.0026
     16 C          63.8436   96.8241    2.1795 C.ar    1  UNL1       -0.0003
     17 C          65.0581   95.9488    2.0861 C.ar    1  UNL1       -0.0000
     18 C          64.9550   94.5867    1.4663 C.ar    1  UNL1       -0.0003
     19 C          63.6374   94.1000    0.9400 C.ar    1  UNL1       -0.0026
     20 C          60.9127   94.2932   -0.9676 C.3     1  UNL1        0.1515
     21 N          59.5553   93.9540   -1.5083 N.ar    1  UNL1       -0.2474
     22 C          59.2093   92.7465   -2.3280 C.ar    1  UNL1        0.0968
     23 C          57.7457   92.8090   -2.6505 C.ar    1  UNL1        0.0427
     24 C          57.1871   94.0553   -2.0300 C.ar    1  UNL1        0.1217
     25 N          58.3055   94.7629   -1.3241 N.ar    1  UNL1       -0.1676
     26 C          59.6156   88.5407    7.5890 C.3     1  UNL1        0.1007
     27 C          60.1377   88.8840    8.9526 C.ar    1  UNL1        0.0129
     28 C          59.4161   88.6762   10.2511 C.ar    1  UNL1        0.0176
     29 C          60.3056   89.1592   11.3581 C.ar    1  UNL1        0.0799
     30 N          61.5769   89.6656   10.7438 N.ar    1  UNL1       -0.3038
     31 C          61.4732   89.4955    9.2571 C.ar    1  UNL1        0.0772
     32 C          62.7466   90.2411   11.4859 C.ar    1  UNL1        0.0640
     33 C          63.5428   91.3587   10.8803 C.ar    1  UNL1        0.0175
     34 C          64.7125   91.9341   11.6224 C.ar    1  UNL1        0.0053
     35 C          65.0859   91.3919   12.9701 C.ar    1  UNL1        0.0715
     36 C          64.2898   90.2742   13.5758 C.ar    1  UNL1        0.0053
     37 C          63.1201   89.6988   12.8337 C.ar    1  UNL1        0.0175
     38 C          66.2556   91.9673   13.7122 C.3     1  UNL1        0.4186
     39 F          67.4254   92.5428   14.4543 F       1  UNL1       -0.1659
     40 F          65.5870   91.6454   15.0158 F       1  UNL1       -0.1659
     41 F          66.9243   92.2893   12.4086 F       1  UNL1       -0.1659
@<TRIPOS>BOND
     1     7     8    2
     2     8     9   am
     3     9     1    1
     4     1     2    1
     5     2     3    1
     6     3     4    1
     7     4    26    1
     8    26    27    1
     9    27    28   ar
    10    28    29   ar
    11    29    30   ar
    12    30    32    1
    13    32    33   ar
    14    33    34   ar
    15    34    35   ar
    16    35    38    1
    17    38    39    1
    18    38    40    1
    19    38    41    1
    20    35    36   ar
    21    36    37   ar
    22    30    31   ar
    23     4     5    1
    24     5     6    1
    25     8    10   am
    26    10    13    1
    27    13    20    1
    28    20    21    1
    29    21    22   ar
    30    22    23   ar
    31    23    24   ar
    32    24    25   ar
    33    13    14    1
    34    14    15   ar
    35    15    16   ar
    36    16    17   ar
    37    17    18   ar
    38    18    19   ar
    39     6     1    1
    40    25    21   ar
    41    19    14   ar
    42    31    27   ar
    43    37    32   ar
    44     9    11    1
    45    10    12    1
