@<TRIPOS>MOLECULE
*****
 13 13 0 0 0
SMALL
GASTEIGER

@<TRIPOS>ATOM
      1 C          63.0679   85.0451    8.0374 C.3     1  UNL1        0.0318
      2 C          63.1104   84.7021    9.4971 C.ar    1  UNL1       -0.0111
      3 C          63.8612   83.4893    9.9610 C.ar    1  UNL1        0.0170
      4 C          63.9037   83.1463   11.4206 C.ar    1  UNL1        0.0986
      5 N          63.1953   84.0162   12.4164 N.ar    1  UNL1       -0.2417
      6 C          62.4445   85.2290   11.9524 C.ar    1  UNL1        0.1067
      7 C          62.4020   85.5720   10.4928 C.ar    1  UNL1        0.0569
      8 C          61.6511   86.7849   10.0289 C.1     1  UNL1       -0.0618
      9 C          60.9003   87.9977    9.5651 C.1     1  UNL1       -0.0689
     10 C          60.1494   89.2106    9.1012 C.3     1  UNL1        0.1432
     11 N          60.1562   90.4599    9.9313 N.3     1  UNL1       -0.3102
     12 H          59.6717   90.2857   10.8118 H       1  UNL1        0.1198
     13 H          59.6822   91.2075    9.4245 H       1  UNL1        0.1198
@<TRIPOS>BOND
     1     1     2    1
     2     2     3   ar
     3     3     4   ar
     4     4     5   ar
     5     5     6   ar
     6     6     7   ar
     7     7     8    1
     8     8     9    3
     9     9    10    1
    10    10    11    1
    11     7     2   ar
    12    11    12    1
    13    11    13    1
@<TRIPOS>MOLECULE
*****
 13 13 0 0 0
SMALL
GASTEIGER

@<TRIPOS>ATOM
      1 C          62.4105   88.4405   11.1162 C.3     1  UNL1        0.0318
      2 C          61.4814   88.0687    9.9988 C.ar    1  UNL1       -0.0111
      3 C          60.7109   89.1349    9.2780 C.ar    1  UNL1        0.0170
      4 C          59.7819   88.7631    8.1605 C.ar    1  UNL1        0.0986
      5 N          59.6233   87.3252    7.7640 N.ar    1  UNL1       -0.2417
      6 C          60.3938   86.2591    8.4848 C.ar    1  UNL1        0.1067
      7 C          61.3228   86.6309    9.6023 C.ar    1  UNL1        0.0569
      8 C          62.0933   85.5646   10.3231 C.1     1  UNL1       -0.0618
      9 C          62.8638   84.4985   11.0440 C.1     1  UNL1       -0.0689
     10 C          63.6343   83.4323   11.7649 C.3     1  UNL1        0.1432
     11 N          64.9294   82.9303   11.1987 N.3     1  UNL1       -0.3102
     12 H          64.7509   82.4464   10.3187 H       1  UNL1        0.1198
     13 H          65.3621   82.2851   11.8598 H       1  UNL1        0.1198
@<TRIPOS>BOND
     1     1     2    1
     2     2     3   ar
     3     3     4   ar
     4     4     5   ar
     5     5     6   ar
     6     6     7   ar
     7     7     8    1
     8     8     9    3
     9     9    10    1
    10    10    11    1
    11     7     2   ar
    12    11    12    1
    13    11    13    1
@<TRIPOS>MOLECULE
*****
 13 13 0 0 0
SMALL
GASTEIGER

@<TRIPOS>ATOM
      1 C          68.0212   92.0207    9.9857 C.3     1  UNL1        0.0318
      2 C          67.3988   93.3746    9.8139 C.ar    1  UNL1       -0.0111
      3 C          67.8840   94.2911    8.7302 C.ar    1  UNL1        0.0170
      4 C          67.2615   95.6450    8.5585 C.ar    1  UNL1        0.0986
      5 N          66.1539   96.0824    9.4705 N.ar    1  UNL1       -0.2417
      6 C          65.6687   95.1659   10.5542 C.ar    1  UNL1        0.1067
      7 C          66.2912   93.8119   10.7259 C.ar    1  UNL1        0.0569
      8 C          65.8059   92.8954   11.8097 C.1     1  UNL1       -0.0618
      9 C          65.3207   91.9789   12.8935 C.1     1  UNL1       -0.0689
     10 C          64.8355   91.0624   13.9773 C.3     1  UNL1        0.1432
     11 N          63.4298   91.1819   14.4871 N.3     1  UNL1       -0.3102
     12 H          63.3141   92.0793   14.9579 H       1  UNL1        0.1198
     13 H          63.2414   90.4258   15.1453 H       1  UNL1        0.1198
@<TRIPOS>BOND
     1     1     2    1
     2     2     3   ar
     3     3     4   ar
     4     4     5   ar
     5     5     6   ar
     6     6     7   ar
     7     7     8    1
     8     8     9    3
     9     9    10    1
    10    10    11    1
    11     7     2   ar
    12    11    12    1
    13    11    13    1
@<TRIPOS>MOLECULE
*****
 13 13 0 0 0
SMALL
GASTEIGER

@<TRIPOS>ATOM
      1 C          63.5349   84.2939    9.1587 C.3     1  UNL1        0.0318
      2 C          63.5794   83.7077   10.5387 C.ar    1  UNL1       -0.0111
      3 C          64.4308   82.5041   10.8152 C.ar    1  UNL1        0.0170
      4 C          64.4753   81.9179   12.1952 C.ar    1  UNL1        0.0986
      5 N          63.6684   82.5352   13.2987 N.ar    1  UNL1       -0.2417
      6 C          62.8170   83.7388   13.0222 C.ar    1  UNL1        0.1067
      7 C          62.7725   84.3250   11.6422 C.ar    1  UNL1        0.0569
      8 C          61.9211   85.5287   11.3658 C.1     1  UNL1       -0.0618
      9 C          61.0696   86.7322   11.0893 C.1     1  UNL1       -0.0689
     10 C          60.2182   87.9359   10.8129 C.3     1  UNL1        0.1432
     11 N          59.4251   88.5639   11.9204 N.3     1  UNL1       -0.3102
     12 H          58.7046   87.9135   12.2337 H       1  UNL1        0.1198
     13 H          58.9862   89.4199   11.5811 H       1  UNL1        0.1198
@<TRIPOS>BOND
     1     1     2    1
     2     2     3   ar
     3     3     4   ar
     4     4     5   ar
     5     5     6   ar
     6     6     7   ar
     7     7     8    1
     8     8     9    3
     9     9    10    1
    10    10    11    1
    11     7     2   ar
    12    11    12    1
    13    11    13    1
@<TRIPOS>MOLECULE
*****
 13 13 0 0 0
SMALL
GASTEIGER

@<TRIPOS>ATOM
      1 C          62.1429   85.8918   10.8910 C.3     1  UNL1        0.0318
      2 C          61.3810   86.7996    9.9715 C.ar    1  UNL1       -0.0111
      3 C          60.5514   86.2208    8.8640 C.ar    1  UNL1        0.0170
      4 C          59.7895   87.1286    7.9446 C.ar    1  UNL1        0.0986
      5 N          59.8573   88.6152    8.1326 N.ar    1  UNL1       -0.2417
      6 C          60.6869   89.1940    9.2401 C.ar    1  UNL1        0.1067
      7 C          61.4488   88.2862   10.1595 C.ar    1  UNL1        0.0569
      8 C          62.2785   88.8651   11.2671 C.1     1  UNL1       -0.0618
      9 C          63.1082   89.4439   12.3746 C.1     1  UNL1       -0.0689
     10 C          63.9379   90.0227   13.4821 C.3     1  UNL1        0.1432
     11 N          63.3936   91.1403   14.3216 N.3     1  UNL1       -0.3102
     12 H          63.2751   91.9727   13.7441 H       1  UNL1        0.1198
     13 H          64.0438   91.3430   15.0809 H       1  UNL1        0.1198
@<TRIPOS>BOND
     1     1     2    1
     2     2     3   ar
     3     3     4   ar
     4     4     5   ar
     5     5     6   ar
     6     6     7   ar
     7     7     8    1
     8     8     9    3
     9     9    10    1
    10    10    11    1
    11     7     2   ar
    12    11    12    1
    13    11    13    1
@<TRIPOS>MOLECULE
*****
 13 13 0 0 0
SMALL
GASTEIGER

@<TRIPOS>ATOM
      1 C          63.9189   83.0667   10.0275 C.3     1  UNL1        0.0318
      2 C          63.7204   83.4932   11.4518 C.ar    1  UNL1       -0.0111
      3 C          64.4733   82.8064   12.5523 C.ar    1  UNL1        0.0170
      4 C          64.2748   83.2330   13.9766 C.ar    1  UNL1        0.0986
      5 N          63.3232   84.3464   14.3003 N.ar    1  UNL1       -0.2417
      6 C          62.5702   85.0332   13.1998 C.ar    1  UNL1        0.1067
      7 C          62.7688   84.6066   11.7755 C.ar    1  UNL1        0.0569
      8 C          62.0158   85.2935   10.6749 C.1     1  UNL1       -0.0618
      9 C          61.2627   85.9803    9.5744 C.1     1  UNL1       -0.0689
     10 C          60.5097   86.6672    8.4738 C.3     1  UNL1        0.1432
     11 N          59.6438   85.8683    7.5455 N.3     1  UNL1       -0.3102
     12 H          60.2276   85.2438    6.9889 H       1  UNL1        0.1198
     13 H          59.1354   86.4999    6.9266 H       1  UNL1        0.1198
@<TRIPOS>BOND
     1     1     2    1
     2     2     3   ar
     3     3     4   ar
     4     4     5   ar
     5     5     6   ar
     6     6     7   ar
     7     7     8    1
     8     8     9    3
     9     9    10    1
    10    10    11    1
    11     7     2   ar
    12    11    12    1
    13    11    13    1
@<TRIPOS>MOLECULE
*****
 13 13 0 0 0
SMALL
GASTEIGER

@<TRIPOS>ATOM
      1 C          63.5501   84.1802    9.5369 C.3     1  UNL1        0.0318
      2 C          62.5085   85.2543    9.6433 C.ar    1  UNL1       -0.0111
      3 C          61.9554   85.8884    8.4015 C.ar    1  UNL1        0.0170
      4 C          60.9138   86.9625    8.5079 C.ar    1  UNL1        0.0986
      5 N          60.4253   87.4025    9.8561 N.ar    1  UNL1       -0.2417
      6 C          60.9784   86.7685   11.0979 C.ar    1  UNL1        0.1067
      7 C          62.0200   85.6944   10.9915 C.ar    1  UNL1        0.0569
      8 C          62.5731   85.0604   12.2333 C.1     1  UNL1       -0.0618
      9 C          63.1262   84.4263   13.4751 C.1     1  UNL1       -0.0689
     10 C          63.6793   83.7923   14.7169 C.3     1  UNL1        0.1432
     11 N          62.8686   82.7759   15.4650 N.3     1  UNL1       -0.3102
     12 H          62.0398   83.2234   15.8565 H       1  UNL1        0.1198
     13 H          63.4303   82.3814   16.2195 H       1  UNL1        0.1198
@<TRIPOS>BOND
     1     1     2    1
     2     2     3   ar
     3     3     4   ar
     4     4     5   ar
     5     5     6   ar
     6     6     7   ar
     7     7     8    1
     8     8     9    3
     9     9    10    1
    10    10    11    1
    11     7     2   ar
    12    11    12    1
    13    11    13    1
@<TRIPOS>MOLECULE
*****
 13 13 0 0 0
SMALL
GASTEIGER

@<TRIPOS>ATOM
      1 C          62.5992   84.7826   11.3384 C.3     1  UNL1        0.0318
      2 C          62.9224   83.6852   12.3087 C.ar    1  UNL1       -0.0111
      3 C          62.6271   82.2583   11.9526 C.ar    1  UNL1        0.0170
      4 C          62.9502   81.1609   12.9229 C.ar    1  UNL1        0.0986
      5 N          63.5686   81.4904   14.2491 N.ar    1  UNL1       -0.2417
      6 C          63.8639   82.9173   14.6051 C.ar    1  UNL1        0.1067
      7 C          63.5408   84.0147   13.6349 C.ar    1  UNL1        0.0569
      8 C          63.8361   85.4416   13.9910 C.1     1  UNL1       -0.0618
      9 C          64.1315   86.8684   14.3471 C.1     1  UNL1       -0.0689
     10 C          64.4268   88.2954   14.7031 C.3     1  UNL1        0.1432
     11 N          63.4177   89.1027   15.4646 N.3     1  UNL1       -0.3102
     12 H          62.5868   89.2389   14.8888 H       1  UNL1        0.1198
     13 H          63.8183   90.0098   15.7035 H       1  UNL1        0.1198
@<TRIPOS>BOND
     1     1     2    1
     2     2     3   ar
     3     3     4   ar
     4     4     5   ar
     5     5     6   ar
     6     6     7   ar
     7     7     8    1
     8     8     9    3
     9     9    10    1
    10    10    11    1
    11     7     2   ar
    12    11    12    1
    13    11    13    1
@<TRIPOS>MOLECULE
*****
 13 13 0 0 0
SMALL
GASTEIGER

@<TRIPOS>ATOM
      1 C          62.1913   89.9359   10.4104 C.3     1  UNL1        0.0318
      2 C          62.6779   88.9443   11.4253 C.ar    1  UNL1       -0.0111
      3 C          63.4674   89.4117   12.6119 C.ar    1  UNL1        0.0170
      4 C          63.9540   88.4201   13.6268 C.ar    1  UNL1        0.0986
      5 N          63.6511   86.9611   13.4550 N.ar    1  UNL1       -0.2417
      6 C          62.8617   86.4937   12.2684 C.ar    1  UNL1        0.1067
      7 C          62.3751   87.4853   11.2535 C.ar    1  UNL1        0.0569
      8 C          61.5856   87.0178   10.0668 C.1     1  UNL1       -0.0618
      9 C          60.7961   86.5504    8.8801 C.1     1  UNL1       -0.0689
     10 C          60.0066   86.0829    7.6934 C.3     1  UNL1        0.1432
     11 N          58.5790   86.5117    7.5262 N.3     1  UNL1       -0.3102
     12 H          58.0140   86.1119    8.2754 H       1  UNL1        0.1198
     13 H          58.2293   86.1854    6.6253 H       1  UNL1        0.1198
@<TRIPOS>BOND
     1     1     2    1
     2     2     3   ar
     3     3     4   ar
     4     4     5   ar
     5     5     6   ar
     6     6     7   ar
     7     7     8    1
     8     8     9    3
     9     9    10    1
    10    10    11    1
    11     7     2   ar
    12    11    12    1
    13    11    13    1
