@<TRIPOS>MOLECULE
*****
 13 14 0 0 0
SMALL
GASTEIGER

@<TRIPOS>ATOM
      1 C          63.9245   83.1658   11.3860 C.3     1  UNL1        0.1339
      2 C          61.9715   81.3253   13.2429 C.3     1  UNL1        0.0719
      3 C          62.9363   82.3625   13.7361 C.ar    1  UNL1        0.1211
      4 N          63.1728   82.7358   15.1695 N.ar    1  UNL1       -0.2293
      5 C          64.2167   83.8126   15.2019 C.ar    1  UNL1        0.1188
      6 C          64.6253   84.1047   13.7885 C.ar    1  UNL1        0.0980
      7 N          63.8340   83.2085   12.8826 N.ar    1  UNL1       -0.3094
      8 C          63.2144   84.1986   10.5618 C.ar    1  UNL1        0.0004
      9 C          62.1759   85.0777   11.1932 C.ar    1  UNL1       -0.0024
     10 C          61.4659   86.1104   10.3691 C.ar    1  UNL1       -0.0003
     11 C          61.7944   86.2641    8.9136 C.ar    1  UNL1       -0.0000
     12 C          62.8329   85.3850    8.2822 C.ar    1  UNL1       -0.0003
     13 C          63.5429   84.3523    9.1063 C.ar    1  UNL1       -0.0024
@<TRIPOS>BOND
     1     2     3    1
     2     3     4   ar
     3     4     5   ar
     4     5     6   ar
     5     6     7   ar
     6     7     1    1
     7     1     8    1
     8     8     9   ar
     9     9    10   ar
    10    10    11   ar
    11    11    12   ar
    12    12    13   ar
    13     7     3   ar
    14    13     8   ar
@<TRIPOS>MOLECULE
*****
 13 14 0 0 0
SMALL
GASTEIGER

@<TRIPOS>ATOM
      1 C          64.1291   82.9935   11.0057 C.3     1  UNL1        0.1339
      2 C          64.6911   84.0031   14.0577 C.3     1  UNL1        0.0719
      3 C          63.9250   82.7757   13.6620 C.ar    1  UNL1        0.1211
      4 N          63.2828   81.7968   14.5997 N.ar    1  UNL1       -0.2293
      5 C          62.6275   80.7278   13.7763 C.ar    1  UNL1        0.1188
      6 C          62.8648   81.0460   12.3298 C.ar    1  UNL1        0.0980
      7 N          63.6667   82.3116   12.2591 N.ar    1  UNL1       -0.3094
      8 C          63.3179   84.1089   10.4156 C.ar    1  UNL1        0.0004
      9 C          63.4849   84.4745    8.9705 C.ar    1  UNL1       -0.0024
     10 C          62.6737   85.5898    8.3805 C.ar    1  UNL1       -0.0003
     11 C          61.6955   86.3393    9.2357 C.ar    1  UNL1       -0.0000
     12 C          61.5284   85.9737   10.6808 C.ar    1  UNL1       -0.0003
     13 C          62.3396   84.8584   11.2707 C.ar    1  UNL1       -0.0024
@<TRIPOS>BOND
     1     2     3    1
     2     3     4   ar
     3     4     5   ar
     4     5     6   ar
     5     6     7   ar
     6     7     1    1
     7     1     8    1
     8     8     9   ar
     9     9    10   ar
    10    10    11   ar
    11    11    12   ar
    12    12    13   ar
    13     7     3   ar
    14    13     8   ar
@<TRIPOS>MOLECULE
*****
 13 14 0 0 0
SMALL
GASTEIGER

@<TRIPOS>ATOM
      1 C          63.7795   83.5576   11.7012 C.3     1  UNL1        0.1339
      2 C          61.9564   81.5544   13.5215 C.3     1  UNL1        0.0719
      3 C          62.6648   82.7851   14.0046 C.ar    1  UNL1        0.1211
      4 N          62.6595   83.3112   15.4093 N.ar    1  UNL1       -0.2293
      5 C          63.4942   84.5571   15.4408 C.ar    1  UNL1        0.1188
      6 C          64.0153   84.8010   14.0555 C.ar    1  UNL1        0.0980
      7 N          63.5027   83.7059   13.1679 N.ar    1  UNL1       -0.3094
      8 C          63.0721   84.4356   10.7119 C.ar    1  UNL1        0.0004
      9 C          63.4770   84.4160    9.2677 C.ar    1  UNL1       -0.0024
     10 C          62.7696   85.2940    8.2785 C.ar    1  UNL1       -0.0003
     11 C          61.6574   86.1917    8.7335 C.ar    1  UNL1       -0.0000
     12 C          61.2525   86.2114   10.1776 C.ar    1  UNL1       -0.0003
     13 C          61.9599   85.3334   11.1668 C.ar    1  UNL1       -0.0024
@<TRIPOS>BOND
     1     2     3    1
     2     3     4   ar
     3     4     5   ar
     4     5     6   ar
     5     6     7   ar
     6     7     1    1
     7     1     8    1
     8     8     9   ar
     9     9    10   ar
    10    10    11   ar
    11    11    12   ar
    12    12    13   ar
    13     7     3   ar
    14    13     8   ar
@<TRIPOS>MOLECULE
*****
 13 14 0 0 0
SMALL
GASTEIGER

@<TRIPOS>ATOM
      1 C          65.9879   93.0163   12.2225 C.3     1  UNL1        0.1339
      2 C          68.0661   92.0820    9.8864 C.3     1  UNL1        0.0719
      3 C          67.4586   93.4457   10.0322 C.ar    1  UNL1        0.1211
      4 N          67.6998   94.6194    9.1299 N.ar    1  UNL1       -0.2293
      5 C          66.8935   95.7743    9.6461 C.ar    1  UNL1        0.1188
      6 C          66.1541   95.3142   10.8674 C.ar    1  UNL1        0.0980
      7 N          66.5034   93.8751   11.1061 N.ar    1  UNL1       -0.3094
      8 C          64.8917   92.0259   11.9622 C.ar    1  UNL1        0.0004
      9 C          64.4431   91.0996   13.0534 C.ar    1  UNL1       -0.0024
     10 C          63.3469   90.1094   12.7930 C.ar    1  UNL1       -0.0003
     11 C          62.6994   90.0454   11.4415 C.ar    1  UNL1       -0.0000
     12 C          63.1480   90.9717   10.3503 C.ar    1  UNL1       -0.0003
     13 C          64.2441   91.9620   10.6107 C.ar    1  UNL1       -0.0024
@<TRIPOS>BOND
     1     2     3    1
     2     3     4   ar
     3     4     5   ar
     4     5     6   ar
     5     6     7   ar
     6     7     1    1
     7     1     8    1
     8     8     9   ar
     9     9    10   ar
    10    10    11   ar
    11    11    12   ar
    12    12    13   ar
    13     7     3   ar
    14    13     8   ar
@<TRIPOS>MOLECULE
*****
 13 14 0 0 0
SMALL
GASTEIGER

@<TRIPOS>ATOM
      1 C          62.7243   85.6287    8.6479 C.3     1  UNL1        0.1339
      2 C          62.1500   88.5236   10.0405 C.3     1  UNL1        0.0719
      3 C          61.1780   87.7341    9.2148 C.ar    1  UNL1        0.1211
      4 N          59.7713   88.1366    8.8842 N.ar    1  UNL1       -0.2293
      5 C          59.1659   87.0547    8.0398 C.ar    1  UNL1        0.1188
      6 C          60.1985   85.9836    7.8485 C.ar    1  UNL1        0.0980
      7 N          61.4420   86.4034    8.5746 N.ar    1  UNL1       -0.3094
      8 C          63.0082   84.7588    9.8365 C.ar    1  UNL1        0.0004
      9 C          62.3710   85.0651   11.1594 C.ar    1  UNL1       -0.0024
     10 C          62.6550   84.1953   12.3479 C.ar    1  UNL1       -0.0003
     11 C          63.5762   83.0191   12.2136 C.ar    1  UNL1       -0.0000
     12 C          64.2134   82.7128   10.8907 C.ar    1  UNL1       -0.0003
     13 C          63.9295   83.5827    9.7021 C.ar    1  UNL1       -0.0024
@<TRIPOS>BOND
     1     2     3    1
     2     3     4   ar
     3     4     5   ar
     4     5     6   ar
     5     6     7   ar
     6     7     1    1
     7     1     8    1
     8     8     9   ar
     9     9    10   ar
    10    10    11   ar
    11    11    12   ar
    12    12    13   ar
    13     7     3   ar
    14    13     8   ar
@<TRIPOS>MOLECULE
*****
 13 14 0 0 0
SMALL
GASTEIGER

@<TRIPOS>ATOM
      1 C          62.8460   85.7999    9.1288 C.3     1  UNL1        0.1339
      2 C          61.5657   84.6039    6.3756 C.3     1  UNL1        0.0719
      3 C          60.8783   85.5237    7.3408 C.ar    1  UNL1        0.1211
      4 N          59.4818   86.0551    7.2099 N.ar    1  UNL1       -0.2293
      5 C          59.2072   86.9334    8.3946 C.ar    1  UNL1        0.1188
      6 C          60.4340   86.9446    9.2576 C.ar    1  UNL1        0.0980
      7 N          61.4669   86.0734    8.6063 N.ar    1  UNL1       -0.3094
      8 C          63.0617   84.7204   10.1477 C.ar    1  UNL1        0.0004
      9 C          63.8604   83.5017    9.7917 C.ar    1  UNL1       -0.0024
     10 C          64.0760   82.4223   10.8107 C.ar    1  UNL1       -0.0003
     11 C          63.4928   82.5615   12.1856 C.ar    1  UNL1       -0.0000
     12 C          62.6941   83.7801   12.5416 C.ar    1  UNL1       -0.0003
     13 C          62.4785   84.8596   11.5227 C.ar    1  UNL1       -0.0024
@<TRIPOS>BOND
     1     2     3    1
     2     3     4   ar
     3     4     5   ar
     4     5     6   ar
     5     6     7   ar
     6     7     1    1
     7     1     8    1
     8     8     9   ar
     9     9    10   ar
    10    10    11   ar
    11    11    12   ar
    12    12    13   ar
    13     7     3   ar
    14    13     8   ar
@<TRIPOS>MOLECULE
*****
 13 14 0 0 0
SMALL
GASTEIGER

@<TRIPOS>ATOM
      1 C          61.7825   87.2132   10.9796 C.3     1  UNL1        0.1339
      2 C          62.9855   85.4260    8.5284 C.3     1  UNL1        0.0719
      3 C          61.6243   86.0542    8.5761 C.ar    1  UNL1        0.1211
      4 N          60.5770   85.9712    7.5054 N.ar    1  UNL1       -0.2293
      5 C          59.3767   86.7415    7.9705 C.ar    1  UNL1        0.1188
      6 C          59.6823   87.3005    9.3285 C.ar    1  UNL1        0.0980
      7 N          61.0713   86.8757    9.7028 N.ar    1  UNL1       -0.3094
      8 C          62.4116   88.5638   11.1533 C.ar    1  UNL1        0.0004
      9 C          62.3053   89.5868   10.0614 C.ar    1  UNL1       -0.0024
     10 C          62.9344   90.9373   10.2352 C.ar    1  UNL1       -0.0003
     11 C          63.6700   91.2648   11.5007 C.ar    1  UNL1       -0.0000
     12 C          63.7763   90.2419   12.5926 C.ar    1  UNL1       -0.0003
     13 C          63.1472   88.8914   12.4189 C.ar    1  UNL1       -0.0024
@<TRIPOS>BOND
     1     2     3    1
     2     3     4   ar
     3     4     5   ar
     4     5     6   ar
     5     6     7   ar
     6     7     1    1
     7     1     8    1
     8     8     9   ar
     9     9    10   ar
    10    10    11   ar
    11    11    12   ar
    12    12    13   ar
    13     7     3   ar
    14    13     8   ar
@<TRIPOS>MOLECULE
*****
 13 14 0 0 0
SMALL
GASTEIGER

@<TRIPOS>ATOM
      1 C          61.1980   86.8884   11.0283 C.3     1  UNL1        0.1339
      2 C          60.2807   89.1082    8.8191 C.3     1  UNL1        0.0719
      3 C          61.2938   89.3126    9.9062 C.ar    1  UNL1        0.1211
      4 N          62.0631   90.5733   10.1688 N.ar    1  UNL1       -0.2293
      5 C          62.9602   90.3320   11.3466 C.ar    1  UNL1        0.1188
      6 C          62.7453   88.9223   11.8118 C.ar    1  UNL1        0.0980
      7 N          61.7154   88.2922   10.9217 N.ar    1  UNL1       -0.3094
      8 C          62.0872   85.7326   10.6766 C.ar    1  UNL1        0.0004
      9 C          62.4731   84.7358   11.7289 C.ar    1  UNL1       -0.0024
     10 C          63.3622   83.5801   11.3772 C.ar    1  UNL1       -0.0003
     11 C          63.8654   83.4212    9.9731 C.ar    1  UNL1       -0.0000
     12 C          63.4795   84.4179    8.9207 C.ar    1  UNL1       -0.0003
     13 C          62.5904   85.5737    9.2725 C.ar    1  UNL1       -0.0024
@<TRIPOS>BOND
     1     2     3    1
     2     3     4   ar
     3     4     5   ar
     4     5     6   ar
     5     6     7   ar
     6     7     1    1
     7     1     8    1
     8     8     9   ar
     9     9    10   ar
    10    10    11   ar
    11    11    12   ar
    12    12    13   ar
    13     7     3   ar
    14    13     8   ar
@<TRIPOS>MOLECULE
*****
 13 14 0 0 0
SMALL
GASTEIGER

@<TRIPOS>ATOM
      1 C          62.3584   85.8802    8.8395 C.3     1  UNL1        0.1339
      2 C          59.3443   86.6773    7.8754 C.3     1  UNL1        0.0719
      3 C          60.2634   87.5339    8.6948 C.ar    1  UNL1        0.1211
      4 N          59.9584   88.9074    9.2148 N.ar    1  UNL1       -0.2293
      5 C          61.1554   89.3899    9.9794 C.ar    1  UNL1        0.1188
      6 C          62.2002   88.3146    9.9318 C.ar    1  UNL1        0.0980
      7 N          61.6489   87.1675    9.1379 N.ar    1  UNL1       -0.3094
      8 C          62.8012   84.9899    9.9627 C.ar    1  UNL1        0.0004
      9 C          63.7488   83.8586    9.6941 C.ar    1  UNL1       -0.0024
     10 C          64.1915   82.9684   10.8173 C.ar    1  UNL1       -0.0003
     11 C          63.6866   83.2096   12.2090 C.ar    1  UNL1       -0.0000
     12 C          62.7391   84.3410   12.4776 C.ar    1  UNL1       -0.0003
     13 C          62.2964   85.2311   11.3544 C.ar    1  UNL1       -0.0024
@<TRIPOS>BOND
     1     2     3    1
     2     3     4   ar
     3     4     5   ar
     4     5     6   ar
     5     6     7   ar
     6     7     1    1
     7     1     8    1
     8     8     9   ar
     9     9    10   ar
    10    10    11   ar
    11    11    12   ar
    12    12    13   ar
    13     7     3   ar
    14    13     8   ar
