@<TRIPOS>MOLECULE
*****
 31 35 0 0 0
SMALL
GASTEIGER

@<TRIPOS>ATOM
      1 C          63.0678   84.4934   15.2845 C.ar    1  UNL1        0.1873
      2 N          62.4427   84.3594   16.6414 N.ar    1  UNL1       -0.1273
      3 N          62.4272   85.7163   17.2806 N.ar    1  UNL1       -0.1316
      4 C          63.0427   86.6889   16.3187 C.ar    1  UNL1        0.1615
      5 N          63.4386   85.9331   15.0850 N.ar    1  UNL1       -0.2944
      6 C          64.0855   86.6534   13.9394 C.3     1  UNL1        0.1302
      7 C          64.3366   88.1297   14.0274 C.3     1  UNL1        0.1186
      8 N          63.9407   88.8855   15.2611 N.am    1  UNL1       -0.2688
      9 C          64.1918   90.3617   15.3492 C.2     1  UNL1        0.2493
     10 O          63.7959   91.1175   16.5829 O.2     1  UNL1       -0.2699
     11 C          63.2937   88.1651   16.4068 C.3     1  UNL1        0.1343
     12 C          62.8978   88.9209   17.6405 C.3     1  UNL1        0.0298
     13 C          64.8387   91.0821   14.2036 C.ar    1  UNL1        0.0536
     14 C          66.2458   91.5855   14.3328 C.ar    1  UNL1        0.0045
     15 C          66.8927   92.3059   13.1871 C.ar    1  UNL1        0.0006
     16 C          66.1326   92.5228   11.9123 C.ar    1  UNL1        0.0060
     17 C          64.7256   92.0193   11.7831 C.ar    1  UNL1        0.0006
     18 C          64.0786   91.2990   12.9287 C.ar    1  UNL1        0.0045
     19 C          66.7796   93.2432   10.7666 C.ar    1  UNL1        0.0295
     20 C          67.7007   92.6358    9.7504 C.ar    1  UNL1        0.0070
     21 C          68.1094   93.7147    8.7917 C.ar    1  UNL1        0.0075
     22 C          67.4408   94.9889    9.2155 C.ar    1  UNL1        0.0354
     23 S          66.6189   94.6975   10.4360 S.2     1  UNL1       -0.0864
     24 C          63.5290   82.1578   12.2188 C.ar    1  UNL1        0.2054
     25 N          63.2688   83.5136   12.8056 N.ar    1  UNL1       -0.2088
     26 C          63.2841   83.3826   14.2998 C.ar    1  UNL1        0.1573
     27 C          63.5536   81.9460   14.6366 C.ar    1  UNL1        0.2033
     28 O          63.7050   81.1890   13.3504 O.2     1  UNL1       -0.4352
     29 C          64.1380   82.8381    9.7865 C.3     1  UNL1        0.0097
     30 C          63.6005   81.8287   10.7572 C.3     1  UNL1        0.0766
     31 C          63.1346   80.4901   10.2661 C.3     1  UNL1        0.0097
@<TRIPOS>BOND
     1    29    30    1
     2    30    31    1
     3    30    24    1
     4    24    25   ar
     5    25    26   ar
     6    26     1    1
     7     1     2   ar
     8     2     3   ar
     9     3     4   ar
    10     4     5   ar
    11     5     6    1
    12     6     7    1
    13     7     8    1
    14     8     9   am
    15     9    10    2
    16     9    13    1
    17    13    14   ar
    18    14    15   ar
    19    15    16   ar
    20    16    19    1
    21    19    20   ar
    22    20    21   ar
    23    21    22   ar
    24    22    23   ar
    25    16    17   ar
    26    17    18   ar
    27     8    11    1
    28    11    12    1
    29    26    27   ar
    30    27    28   ar
    31    28    24   ar
    32     5     1   ar
    33    18    13   ar
    34    11     4    1
    35    23    19   ar
@<TRIPOS>MOLECULE
*****
 31 35 0 0 0
SMALL
GASTEIGER

@<TRIPOS>ATOM
      1 C          64.1315   90.9099   14.2164 C.ar    1  UNL1        0.1873
      2 N          63.9892   91.5435   15.5686 N.ar    1  UNL1       -0.1273
      3 N          63.6331   90.4664   16.5499 N.ar    1  UNL1       -0.1316
      4 C          63.5553   89.1672   15.8043 C.ar    1  UNL1        0.1615
      5 N          63.8633   89.4413   14.3621 N.ar    1  UNL1       -0.2944
      6 C          63.8599   88.3182   13.3678 C.3     1  UNL1        0.1302
      7 C          63.5484   86.9209   13.8157 C.3     1  UNL1        0.1186
      8 N          63.2404   86.6468   15.2579 N.am    1  UNL1       -0.2688
      9 C          62.9289   85.2495   15.7059 C.2     1  UNL1        0.2493
     10 O          62.6209   84.9754   17.1481 O.2     1  UNL1       -0.2699
     11 C          63.2439   87.7699   16.2522 C.3     1  UNL1        0.1343
     12 C          62.9359   87.4958   17.6944 C.3     1  UNL1        0.0298
     13 C          62.9254   84.1265   14.7116 C.ar    1  UNL1        0.0536
     14 C          63.8432   84.1716   13.5260 C.ar    1  UNL1        0.0045
     15 C          63.8397   83.0484   12.5317 C.ar    1  UNL1        0.0006
     16 C          62.9185   81.8802   12.7230 C.ar    1  UNL1        0.0060
     17 C          62.0007   81.8351   13.9086 C.ar    1  UNL1        0.0006
     18 C          62.0042   82.9582   14.9029 C.ar    1  UNL1        0.0045
     19 C          62.9150   80.7570   11.7287 C.ar    1  UNL1        0.0295
     20 C          63.2131   80.8757   10.2635 C.ar    1  UNL1        0.0070
     21 C          63.0951   79.5101    9.6543 C.ar    1  UNL1        0.0075
     22 C          62.7240   78.5473   10.7432 C.ar    1  UNL1        0.0354
     23 S          62.6127   79.3180   12.0253 S.2     1  UNL1       -0.0864
     24 C          65.4985   93.1502   11.3566 C.ar    1  UNL1        0.2054
     25 N          65.4635   92.7444   12.8004 N.ar    1  UNL1       -0.2088
     26 C          64.4806   91.6203   12.9423 C.ar    1  UNL1        0.1573
     27 C          63.9080   91.3312   11.5863 C.ar    1  UNL1        0.2033
     28 O          64.5371   92.2767   10.6064 O.2     1  UNL1       -0.4352
     29 C          67.3266   93.9180    9.6778 C.3     1  UNL1        0.0097
     30 C          66.3460   94.2381   10.7668 C.3     1  UNL1        0.0766
     31 C          66.2129   95.6464   11.2660 C.3     1  UNL1        0.0097
@<TRIPOS>BOND
     1    29    30    1
     2    30    31    1
     3    30    24    1
     4    24    25   ar
     5    25    26   ar
     6    26     1    1
     7     1     2   ar
     8     2     3   ar
     9     3     4   ar
    10     4     5   ar
    11     5     6    1
    12     6     7    1
    13     7     8    1
    14     8     9   am
    15     9    10    2
    16     9    13    1
    17    13    14   ar
    18    14    15   ar
    19    15    16   ar
    20    16    19    1
    21    19    20   ar
    22    20    21   ar
    23    21    22   ar
    24    22    23   ar
    25    16    17   ar
    26    17    18   ar
    27     8    11    1
    28    11    12    1
    29    26    27   ar
    30    27    28   ar
    31    28    24   ar
    32     5     1   ar
    33    18    13   ar
    34    11     4    1
    35    23    19   ar
