@<TRIPOS>MOLECULE
*****
 28 30 0 0 0
SMALL
GASTEIGER

@<TRIPOS>ATOM
      1 C          60.9413   88.9372   11.0210 C.2     1  UNL1        0.2252
      2 O          59.8496   89.9652   11.0547 O.2     1  UNL1       -0.2750
      3 N          62.3712   89.3555   11.1956 N.am    1  UNL1       -0.3003
      4 H          63.0878   88.6807   11.1735 H       1  UNL1        0.1497
      5 C          60.6032   87.4906   10.8127 C.3     1  UNL1        0.1154
      6 C          60.7708   87.5607    8.8135 C.3     1  UNL1        0.0335
      7 C          61.3972   86.6670    9.8426 C.3     1  UNL1        0.1377
      8 C          61.8575   85.9456   11.0745 C.3     1  UNL1        0.0613
      9 C          62.8053   84.8628   10.6506 C.3     1  UNL1        0.1290
     10 C          63.7293   83.8285   10.0793 C.3     1  UNL1        0.0305
     11 C          64.4288   82.8630   10.9895 C.3     1  UNL1        0.0025
     12 C          64.2042   82.9318   12.4710 C.3     1  UNL1        0.0002
     13 C          63.2802   83.9660   13.0423 C.3     1  UNL1        0.0025
     14 C          62.5807   84.9315   12.1321 C.3     1  UNL1        0.0305
     15 O          62.9306   84.9151    9.1568 O.3     1  UNL1       -0.2256
     16 O          62.0603   86.0302    8.6573 O.3     1  UNL1       -0.2251
     17 C          62.7093   90.8020   11.4039 C.3     1  UNL1        0.1193
     18 C          63.9531   91.1813   12.1516 C.ar    1  UNL1        0.0317
     19 C          64.8921   92.2003   11.5773 C.ar    1  UNL1        0.0004
     20 C          66.1359   92.5796   12.3250 C.ar    1  UNL1       -0.0001
     21 C          66.4407   91.9399   13.6471 C.ar    1  UNL1        0.0031
     22 C          65.5017   90.9210   14.2214 C.ar    1  UNL1        0.0369
     23 C          64.2579   90.5416   13.4737 C.ar    1  UNL1        0.1444
     24 O          63.3189   89.5226   14.0480 O.3     1  UNL1       -0.4047
     25 C          63.8603   88.2643   14.6595 C.3     1  UNL1        0.5753
     26 F          64.4016   87.0061   15.2708 F       1  UNL1       -0.1328
     27 F          64.0715   87.6898   13.2900 F       1  UNL1       -0.1328
     28 F          63.6491   88.8389   16.0288 F       1  UNL1       -0.1328
@<TRIPOS>BOND
     1     6     7    1
     2     7     5    1
     3     5     1    1
     4     1     2    2
     5     1     3   am
     6     3    17    1
     7    17    18    1
     8    18    19   ar
     9    19    20   ar
    10    20    21   ar
    11    21    22   ar
    12    22    23   ar
    13    23    24    1
    14    24    25    1
    15    25    26    1
    16    25    27    1
    17    25    28    1
    18     7     8    1
    19     8     9    1
    20     9    10    1
    21    10    11    1
    22    11    12    1
    23    12    13    1
    24    13    14    1
    25     9    15    1
    26    15    16    1
    27    16     7    1
    28    23    18   ar
    29    14     9    1
    30     3     4    1
@<TRIPOS>MOLECULE
*****
 28 30 0 0 0
SMALL
GASTEIGER

@<TRIPOS>ATOM
      1 C          61.9399   86.7019   10.5934 C.2     1  UNL1        0.2252
      2 O          62.4283   86.4271    9.2021 O.2     1  UNL1       -0.2750
      3 N          62.2444   85.7358   11.6998 N.am    1  UNL1       -0.3003
      4 H          61.9238   85.9163   12.6130 H       1  UNL1        0.1497
      5 C          61.1469   87.9430   10.8785 C.3     1  UNL1        0.1154
      6 C          60.8320   89.2478    9.3858 C.3     1  UNL1        0.0335
      7 C          61.7334   89.2918   10.5840 C.3     1  UNL1        0.1377
      8 C          62.5121   89.0537   11.8437 C.3     1  UNL1        0.0613
      9 C          63.3916   90.2463   12.0774 C.3     1  UNL1        0.1290
     10 C          64.2104   91.4990   12.1792 C.3     1  UNL1        0.0305
     11 C          65.1585   91.6839   13.3267 C.3     1  UNL1        0.0025
     12 C          65.2878   90.6163   14.3723 C.3     1  UNL1        0.0002
     13 C          64.4690   89.3636   14.2705 C.3     1  UNL1        0.0025
     14 C          63.5209   89.1787   13.1230 C.3     1  UNL1        0.0305
     15 O          63.1563   91.2214   10.9621 O.3     1  UNL1       -0.2256
     16 O          62.1314   90.6314   10.0391 O.3     1  UNL1       -0.2251
     17 C          63.0373   84.4949   11.4147 C.3     1  UNL1        0.1193
     18 C          62.8079   83.2551   12.2272 C.ar    1  UNL1        0.0317
     19 C          62.9205   81.9049   11.5835 C.ar    1  UNL1        0.0004
     20 C          62.6910   80.6651   12.3961 C.ar    1  UNL1       -0.0001
     21 C          62.3490   80.7755   13.8524 C.ar    1  UNL1        0.0031
     22 C          62.2364   82.1256   14.4961 C.ar    1  UNL1        0.0369
     23 C          62.4658   83.3655   13.6835 C.ar    1  UNL1        0.1444
     24 O          62.3532   84.7155   14.3272 O.3     1  UNL1       -0.4047
     25 C          63.3036   85.1072   15.4197 C.3     1  UNL1        0.5753
     26 F          64.2540   85.4989   16.5121 F       1  UNL1       -0.1328
     27 F          62.2431   84.8269   16.4428 F       1  UNL1       -0.1328
     28 F          64.3640   85.3876   14.3966 F       1  UNL1       -0.1328
@<TRIPOS>BOND
     1     6     7    1
     2     7     5    1
     3     5     1    1
     4     1     2    2
     5     1     3   am
     6     3    17    1
     7    17    18    1
     8    18    19   ar
     9    19    20   ar
    10    20    21   ar
    11    21    22   ar
    12    22    23   ar
    13    23    24    1
    14    24    25    1
    15    25    26    1
    16    25    27    1
    17    25    28    1
    18     7     8    1
    19     8     9    1
    20     9    10    1
    21    10    11    1
    22    11    12    1
    23    12    13    1
    24    13    14    1
    25     9    15    1
    26    15    16    1
    27    16     7    1
    28    23    18   ar
    29    14     9    1
    30     3     4    1
@<TRIPOS>MOLECULE
*****
 28 30 0 0 0
SMALL
GASTEIGER

@<TRIPOS>ATOM
      1 C          63.9880   87.6328   14.1844 C.2     1  UNL1        0.2252
      2 O          63.3893   87.5783   12.8102 O.2     1  UNL1       -0.2750
      3 N          64.0036   88.9257   14.9449 N.am    1  UNL1       -0.3003
      4 H          64.3966   88.9615   15.8469 H       1  UNL1        0.1497
      5 C          64.5711   86.3945   14.7982 C.3     1  UNL1        0.1154
      6 C          63.5395   86.0201   16.4790 C.3     1  UNL1        0.0335
      7 C          63.6738   85.2594   15.1932 C.3     1  UNL1        0.1377
      8 C          63.9957   84.7359   13.8249 C.3     1  UNL1        0.0613
      9 C          63.2693   83.4362   13.6430 C.3     1  UNL1        0.1290
     10 C          62.4867   82.1570   13.6064 C.3     1  UNL1        0.0305
     11 C          62.5245   81.2895   12.3833 C.3     1  UNL1        0.0025
     12 C          63.3449   81.7011   11.1969 C.3     1  UNL1        0.0002
     13 C          64.1274   82.9803   11.2335 C.3     1  UNL1        0.0025
     14 C          64.0896   83.8478   12.4566 C.3     1  UNL1        0.0305
     15 O          62.4984   83.1564   14.8990 O.3     1  UNL1       -0.2256
     16 O          62.7484   84.2832   15.8571 O.3     1  UNL1       -0.2251
     17 C          63.4205   90.1639   14.3311 C.3     1  UNL1        0.1193
     18 C          64.1959   90.9249   13.2969 C.ar    1  UNL1        0.0317
     19 C          63.6042   91.1604   11.9388 C.ar    1  UNL1        0.0004
     20 C          64.3796   91.9214   10.9045 C.ar    1  UNL1       -0.0001
     21 C          65.7466   92.4469   11.2284 C.ar    1  UNL1        0.0031
     22 C          66.3383   92.2115   12.5864 C.ar    1  UNL1        0.0369
     23 C          65.5630   91.4505   13.6208 C.ar    1  UNL1        0.1444
     24 O          66.1547   91.2150   14.9788 O.3     1  UNL1       -0.4047
     25 C          66.8484   92.3333   15.6988 C.3     1  UNL1        0.5753
     26 F          67.5421   93.4515   16.4188 F       1  UNL1       -0.1328
     27 F          65.5210   92.8655   16.1513 F       1  UNL1       -0.1328
     28 F          68.1758   91.8011   15.2463 F       1  UNL1       -0.1328
@<TRIPOS>BOND
     1     6     7    1
     2     7     5    1
     3     5     1    1
     4     1     2    2
     5     1     3   am
     6     3    17    1
     7    17    18    1
     8    18    19   ar
     9    19    20   ar
    10    20    21   ar
    11    21    22   ar
    12    22    23   ar
    13    23    24    1
    14    24    25    1
    15    25    26    1
    16    25    27    1
    17    25    28    1
    18     7     8    1
    19     8     9    1
    20     9    10    1
    21    10    11    1
    22    11    12    1
    23    12    13    1
    24    13    14    1
    25     9    15    1
    26    15    16    1
    27    16     7    1
    28    23    18   ar
    29    14     9    1
    30     3     4    1
@<TRIPOS>MOLECULE
*****
 28 30 0 0 0
SMALL
GASTEIGER

@<TRIPOS>ATOM
      1 C          63.8996   87.4512   14.0254 C.2     1  UNL1        0.2252
      2 O          63.1565   87.3520   12.7263 O.2     1  UNL1       -0.2750
      3 N          63.9215   88.7475   14.7799 N.am    1  UNL1       -0.3003
      4 H          64.4093   88.8125   15.6326 H       1  UNL1        0.1497
      5 C          64.6208   86.2540   14.5702 C.3     1  UNL1        0.1154
      6 C          63.7508   85.7162   16.2975 C.3     1  UNL1        0.0335
      7 C          63.8495   85.0303   14.9672 C.3     1  UNL1        0.1377
      8 C          64.1095   84.6003   13.5538 C.3     1  UNL1        0.0613
      9 C          63.4781   83.2541   13.3554 C.3     1  UNL1        0.1290
     10 C          62.8003   81.9169   13.3066 C.3     1  UNL1        0.0305
     11 C          62.8163   81.1137   12.0399 C.3     1  UNL1        0.0025
     12 C          63.5101   81.6477   10.8220 C.3     1  UNL1        0.0002
     13 C          64.1880   82.9849   10.8707 C.3     1  UNL1        0.0025
     14 C          64.1720   83.7881   12.1374 C.3     1  UNL1        0.0305
     15 O          62.8280   82.8522   14.6461 O.3     1  UNL1       -0.2256
     16 O          63.0575   83.9500   15.6423 O.3     1  UNL1       -0.2251
     17 C          63.2004   89.9446   14.2351 C.3     1  UNL1        0.1193
     18 C          63.7933   90.7247   13.0995 C.ar    1  UNL1        0.0317
     19 C          65.0367   91.5356   13.3152 C.ar    1  UNL1        0.0004
     20 C          65.6297   92.3158   12.1795 C.ar    1  UNL1       -0.0001
     21 C          64.9793   92.2851   10.8282 C.ar    1  UNL1        0.0031
     22 C          63.7360   91.4742   10.6125 C.ar    1  UNL1        0.0369
     23 C          63.1430   90.6940   11.7482 C.ar    1  UNL1        0.1444
     24 O          61.8997   89.8831   11.5325 O.3     1  UNL1       -0.4047
     25 C          61.3781   89.6650   10.1430 C.3     1  UNL1        0.5753
     26 F          60.8566   89.4469    8.7537 F       1  UNL1       -0.1328
     27 F          62.4357   88.6274    9.9089 F       1  UNL1       -0.1328
     28 F          60.3205   90.7026   10.3772 F       1  UNL1       -0.1328
@<TRIPOS>BOND
     1     6     7    1
     2     7     5    1
     3     5     1    1
     4     1     2    2
     5     1     3   am
     6     3    17    1
     7    17    18    1
     8    18    19   ar
     9    19    20   ar
    10    20    21   ar
    11    21    22   ar
    12    22    23   ar
    13    23    24    1
    14    24    25    1
    15    25    26    1
    16    25    27    1
    17    25    28    1
    18     7     8    1
    19     8     9    1
    20     9    10    1
    21    10    11    1
    22    11    12    1
    23    12    13    1
    24    13    14    1
    25     9    15    1
    26    15    16    1
    27    16     7    1
    28    23    18   ar
    29    14     9    1
    30     3     4    1
@<TRIPOS>MOLECULE
*****
 28 30 0 0 0
SMALL
GASTEIGER

@<TRIPOS>ATOM
      1 C          63.5485   84.9227   12.8967 C.2     1  UNL1        0.2252
      2 O          63.6233   83.5074   12.4057 O.2     1  UNL1       -0.2750
      3 N          62.7195   85.9304   12.1568 N.am    1  UNL1       -0.3003
      4 H          62.6704   86.8594   12.4790 H       1  UNL1        0.1497
      5 C          64.3028   85.3305   14.1275 C.3     1  UNL1        0.1154
      6 C          63.1179   84.5562   15.5510 C.3     1  UNL1        0.0335
      7 C          63.5753   85.9586   15.2791 C.3     1  UNL1        0.1377
      8 C          64.1848   87.2298   14.7665 C.3     1  UNL1        0.0613
      9 C          63.7385   88.3504   15.6581 C.3     1  UNL1        0.1290
     10 C          63.2124   89.3632   16.6315 C.3     1  UNL1        0.0305
     11 C          63.5858   90.8086   16.4851 C.3     1  UNL1        0.0025
     12 C          64.4853   91.2411   15.3654 C.3     1  UNL1        0.0002
     13 C          65.0114   90.2283   14.3921 C.3     1  UNL1        0.0025
     14 C          64.6380   88.7830   14.5384 C.3     1  UNL1        0.0305
     15 O          62.8531   87.7719   16.7218 O.3     1  UNL1       -0.2256
     16 O          62.7522   86.2936   16.4876 O.3     1  UNL1       -0.2251
     17 C          61.9653   85.5227   10.9260 C.3     1  UNL1        0.1193
     18 C          61.2794   86.5608   10.0883 C.ar    1  UNL1        0.0317
     19 C          60.5283   86.1535    8.8555 C.ar    1  UNL1        0.0004
     20 C          59.8424   87.1916    8.0178 C.ar    1  UNL1       -0.0001
     21 C          59.9076   88.6372    8.4130 C.ar    1  UNL1        0.0031
     22 C          60.6587   89.0445    9.6457 C.ar    1  UNL1        0.0369
     23 C          61.3446   88.0064   10.4835 C.ar    1  UNL1        0.1444
     24 O          62.0957   88.4137   11.7162 O.3     1  UNL1       -0.4047
     25 C          62.5361   89.8371   11.8902 C.3     1  UNL1        0.5753
     26 F          62.9764   91.2604   12.0641 F       1  UNL1       -0.1328
     27 F          61.7471   89.9257   13.1628 F       1  UNL1       -0.1328
     28 F          63.3250   89.7485   10.6175 F       1  UNL1       -0.1328
@<TRIPOS>BOND
     1     6     7    1
     2     7     5    1
     3     5     1    1
     4     1     2    2
     5     1     3   am
     6     3    17    1
     7    17    18    1
     8    18    19   ar
     9    19    20   ar
    10    20    21   ar
    11    21    22   ar
    12    22    23   ar
    13    23    24    1
    14    24    25    1
    15    25    26    1
    16    25    27    1
    17    25    28    1
    18     7     8    1
    19     8     9    1
    20     9    10    1
    21    10    11    1
    22    11    12    1
    23    12    13    1
    24    13    14    1
    25     9    15    1
    26    15    16    1
    27    16     7    1
    28    23    18   ar
    29    14     9    1
    30     3     4    1
@<TRIPOS>MOLECULE
*****
 28 30 0 0 0
SMALL
GASTEIGER

@<TRIPOS>ATOM
      1 C          63.6181   85.7234   14.5520 C.2     1  UNL1        0.2252
      2 O          64.0845   85.5115   15.9617 O.2     1  UNL1       -0.2750
      3 N          63.7273   87.0803   13.9218 N.am    1  UNL1       -0.3003
      4 H          63.4212   87.2194   12.9965 H       1  UNL1        0.1497
      5 C          63.0425   84.5785   13.7722 C.3     1  UNL1        0.1154
      6 C          64.6442   83.3897   13.5465 C.3     1  UNL1        0.0335
      7 C          63.7515   84.0707   12.5519 C.3     1  UNL1        0.1377
      8 C          62.7106   84.8578   11.8123 C.3     1  UNL1        0.0613
      9 C          62.9628   84.6941   10.3427 C.3     1  UNL1        0.1290
     10 C          63.3367   84.4392    8.9126 C.3     1  UNL1        0.0305
     11 C          62.5332   85.0556    7.8061 C.3     1  UNL1        0.0025
     12 C          61.3558   85.9269    8.1297 C.3     1  UNL1        0.0002
     13 C          60.9820   86.1818    9.5598 C.3     1  UNL1        0.0025
     14 C          61.7855   85.5654   10.6663 C.3     1  UNL1        0.0305
     15 O          64.1596   83.8058   10.1740 O.3     1  UNL1       -0.2256
     16 O          64.6471   83.4204   11.5393 O.3     1  UNL1       -0.2251
     17 C          64.3029   88.2252   14.7015 C.3     1  UNL1        0.1193
     18 C          64.5333   89.5477   14.0323 C.ar    1  UNL1        0.0317
     19 C          65.6654   90.4259   14.4765 C.ar    1  UNL1        0.0004
     20 C          65.8958   91.7484   13.8073 C.ar    1  UNL1       -0.0001
     21 C          64.9942   92.1928   12.6939 C.ar    1  UNL1        0.0031
     22 C          63.8622   91.3147   12.2498 C.ar    1  UNL1        0.0369
     23 C          63.6317   89.9921   12.9190 C.ar    1  UNL1        0.1444
     24 O          62.4997   89.1140   12.4748 O.3     1  UNL1       -0.4047
     25 C          61.7297   89.4535   11.2330 C.3     1  UNL1        0.5753
     26 F          60.9598   89.7931    9.9912 F       1  UNL1       -0.1328
     27 F          62.7573   88.7442   10.4019 F       1  UNL1       -0.1328
     28 F          60.7021   90.1629   12.0642 F       1  UNL1       -0.1328
@<TRIPOS>BOND
     1     6     7    1
     2     7     5    1
     3     5     1    1
     4     1     2    2
     5     1     3   am
     6     3    17    1
     7    17    18    1
     8    18    19   ar
     9    19    20   ar
    10    20    21   ar
    11    21    22   ar
    12    22    23   ar
    13    23    24    1
    14    24    25    1
    15    25    26    1
    16    25    27    1
    17    25    28    1
    18     7     8    1
    19     8     9    1
    20     9    10    1
    21    10    11    1
    22    11    12    1
    23    12    13    1
    24    13    14    1
    25     9    15    1
    26    15    16    1
    27    16     7    1
    28    23    18   ar
    29    14     9    1
    30     3     4    1
@<TRIPOS>MOLECULE
*****
 28 30 0 0 0
SMALL
GASTEIGER

@<TRIPOS>ATOM
      1 C          60.9322   89.0192   11.1708 C.2     1  UNL1        0.2252
      2 O          60.0553   89.9728   11.9267 O.2     1  UNL1       -0.2750
      3 N          62.3153   89.4336   10.7642 N.am    1  UNL1       -0.3003
      4 H          62.8909   88.8077   10.2680 H       1  UNL1        0.1497
      5 C          60.4260   87.6510   10.8214 C.3     1  UNL1        0.1154
      6 C          60.3256   87.7448    8.8187 C.3     1  UNL1        0.0335
      7 C          61.1005   86.8544    9.7443 C.3     1  UNL1        0.1377
      8 C          61.7344   86.1305   10.8950 C.3     1  UNL1        0.0613
      9 C          62.6388   85.0726   10.3356 C.3     1  UNL1        0.1290
     10 C          63.4993   84.0641    9.6337 C.3     1  UNL1        0.0305
     11 C          64.3323   83.1046   10.4308 C.3     1  UNL1        0.0025
     12 C          64.3049   83.1536   11.9298 C.3     1  UNL1        0.0002
     13 C          63.4445   84.1621   12.6316 C.3     1  UNL1        0.0025
     14 C          62.6115   85.1216   11.8345 C.3     1  UNL1        0.0305
     15 O          62.5639   85.1426    8.8391 O.3     1  UNL1       -0.2256
     16 O          61.6131   86.2439    8.4736 O.3     1  UNL1       -0.2251
     17 C          62.8214   90.8017   11.1136 C.3     1  UNL1        0.1193
     18 C          63.8528   90.9675   12.1901 C.ar    1  UNL1        0.0317
     19 C          63.8130   90.0930   13.4081 C.ar    1  UNL1        0.0004
     20 C          64.8444   90.2588   14.4845 C.ar    1  UNL1       -0.0001
     21 C          65.9157   91.2991   14.3429 C.ar    1  UNL1        0.0031
     22 C          65.9556   92.1736   13.1249 C.ar    1  UNL1        0.0369
     23 C          64.9241   92.0078   12.0484 C.ar    1  UNL1        0.1444
     24 O          64.9640   92.8823   10.8305 O.3     1  UNL1       -0.4047
     25 C          66.2115   93.6450   10.4953 C.3     1  UNL1        0.5753
     26 F          67.4589   94.4077   10.1601 F       1  UNL1       -0.1328
     27 F          65.5613   94.9136   10.9621 F       1  UNL1       -0.1328
     28 F          66.8616   92.3764   10.0285 F       1  UNL1       -0.1328
@<TRIPOS>BOND
     1     6     7    1
     2     7     5    1
     3     5     1    1
     4     1     2    2
     5     1     3   am
     6     3    17    1
     7    17    18    1
     8    18    19   ar
     9    19    20   ar
    10    20    21   ar
    11    21    22   ar
    12    22    23   ar
    13    23    24    1
    14    24    25    1
    15    25    26    1
    16    25    27    1
    17    25    28    1
    18     7     8    1
    19     8     9    1
    20     9    10    1
    21    10    11    1
    22    11    12    1
    23    12    13    1
    24    13    14    1
    25     9    15    1
    26    15    16    1
    27    16     7    1
    28    23    18   ar
    29    14     9    1
    30     3     4    1
@<TRIPOS>MOLECULE
*****
 28 30 0 0 0
SMALL
GASTEIGER

@<TRIPOS>ATOM
      1 C          64.2663   87.9402   14.3465 C.2     1  UNL1        0.2252
      2 O          64.6557   89.2799   14.8973 O.2     1  UNL1       -0.2750
      3 N          63.5171   87.8513   13.0500 N.am    1  UNL1       -0.3003
      4 H          63.2615   86.9719   12.6885 H       1  UNL1        0.1497
      5 C          64.6261   86.6893   15.0921 C.3     1  UNL1        0.1154
      6 C          63.3008   86.7851   16.5968 C.3     1  UNL1        0.0335
      7 C          63.5483   85.7480   15.5417 C.3     1  UNL1        0.1377
      8 C          64.0212   84.9077   14.3927 C.3     1  UNL1        0.0613
      9 C          63.1839   83.6638   14.3526 C.3     1  UNL1        0.1290
     10 C          62.2707   82.4768   14.4377 C.3     1  UNL1        0.0305
     11 C          62.4009   81.3579   13.4473 C.3     1  UNL1        0.0025
     12 C          63.4442   81.4259   12.3717 C.3     1  UNL1        0.0002
     13 C          64.3574   82.6129   12.2866 C.3     1  UNL1        0.0025
     14 C          64.2272   83.7318   13.2770 C.3     1  UNL1        0.0305
     15 O          62.1935   83.7353   15.4769 O.3     1  UNL1       -0.2256
     16 O          62.4187   85.0234   16.2119 O.3     1  UNL1       -0.2251
     17 C          63.1573   89.1021   12.3044 C.3     1  UNL1        0.1193
     18 C          62.1136   89.0596   11.2279 C.ar    1  UNL1        0.0317
     19 C          61.2057   90.2348   11.0167 C.ar    1  UNL1        0.0004
     20 C          60.1620   90.1923    9.9401 C.ar    1  UNL1       -0.0001
     21 C          60.0263   88.9746    9.0748 C.ar    1  UNL1        0.0031
     22 C          60.9342   87.7995    9.2860 C.ar    1  UNL1        0.0369
     23 C          61.9779   87.8419   10.3626 C.ar    1  UNL1        0.1444
     24 O          62.8858   86.6668   10.5738 O.3     1  UNL1       -0.4047
     25 C          62.3064   85.2972   10.7709 C.3     1  UNL1        0.5753
     26 F          61.7271   83.9278   10.9679 F       1  UNL1       -0.1328
     27 F          63.1367   84.7822    9.6328 F       1  UNL1       -0.1328
     28 F          61.4761   85.8123   11.9089 F       1  UNL1       -0.1328
@<TRIPOS>BOND
     1     6     7    1
     2     7     5    1
     3     5     1    1
     4     1     2    2
     5     1     3   am
     6     3    17    1
     7    17    18    1
     8    18    19   ar
     9    19    20   ar
    10    20    21   ar
    11    21    22   ar
    12    22    23   ar
    13    23    24    1
    14    24    25    1
    15    25    26    1
    16    25    27    1
    17    25    28    1
    18     7     8    1
    19     8     9    1
    20     9    10    1
    21    10    11    1
    22    11    12    1
    23    12    13    1
    24    13    14    1
    25     9    15    1
    26    15    16    1
    27    16     7    1
    28    23    18   ar
    29    14     9    1
    30     3     4    1
@<TRIPOS>MOLECULE
*****
 28 30 0 0 0
SMALL
GASTEIGER

@<TRIPOS>ATOM
      1 C          63.3659   89.9514   12.2012 C.2     1  UNL1        0.2252
      2 O          63.6647   91.3287   11.6879 O.2     1  UNL1       -0.2750
      3 N          62.4957   89.0260   11.4034 N.am    1  UNL1       -0.3003
      4 H          62.2996   88.1220   11.7403 H       1  UNL1        0.1497
      5 C          63.9374   89.4993   13.5124 C.3     1  UNL1        0.1154
      6 C          62.5520   89.9237   14.9018 C.3     1  UNL1        0.0335
      7 C          63.9471   90.4314   14.6875 C.3     1  UNL1        0.1377
      8 C          65.3401   90.7444   14.2275 C.3     1  UNL1        0.0613
      9 C          65.9192   91.7639   15.1632 C.3     1  UNL1        0.1290
     10 C          66.3616   92.7779   16.1760 C.3     1  UNL1        0.0305
     11 C          67.7347   93.3753   16.0888 C.3     1  UNL1        0.0025
     12 C          68.6654   92.9587   14.9887 C.3     1  UNL1        0.0002
     13 C          68.2230   91.9446   13.9758 C.3     1  UNL1        0.0025
     14 C          66.8499   91.3472   14.0631 C.3     1  UNL1        0.0305
     15 O          64.8840   92.0810   16.2014 O.3     1  UNL1       -0.2256
     16 O          63.6652   91.2575   15.9074 O.3     1  UNL1       -0.2251
     17 C          61.9243   89.4781   10.0922 C.3     1  UNL1        0.1193
     18 C          61.0763   88.5434    9.2815 C.ar    1  UNL1        0.0317
     19 C          59.9367   89.0801    8.4671 C.ar    1  UNL1        0.0004
     20 C          59.0887   88.1455    7.6564 C.ar    1  UNL1       -0.0001
     21 C          59.3803   86.6741    7.6600 C.ar    1  UNL1        0.0031
     22 C          60.5199   86.1374    8.4744 C.ar    1  UNL1        0.0369
     23 C          61.3679   87.0721    9.2852 C.ar    1  UNL1        0.1444
     24 O          62.5075   86.5354   10.0995 O.3     1  UNL1       -0.4047
     25 C          62.3548   85.2405   10.8413 C.3     1  UNL1        0.5753
     26 F          62.2021   83.9457   11.5830 F       1  UNL1       -0.1328
     27 F          61.3524   85.8818   11.7544 F       1  UNL1       -0.1328
     28 F          63.3572   84.5993    9.9281 F       1  UNL1       -0.1328
@<TRIPOS>BOND
     1     6     7    1
     2     7     5    1
     3     5     1    1
     4     1     2    2
     5     1     3   am
     6     3    17    1
     7    17    18    1
     8    18    19   ar
     9    19    20   ar
    10    20    21   ar
    11    21    22   ar
    12    22    23   ar
    13    23    24    1
    14    24    25    1
    15    25    26    1
    16    25    27    1
    17    25    28    1
    18     7     8    1
    19     8     9    1
    20     9    10    1
    21    10    11    1
    22    11    12    1
    23    12    13    1
    24    13    14    1
    25     9    15    1
    26    15    16    1
    27    16     7    1
    28    23    18   ar
    29    14     9    1
    30     3     4    1
