@<TRIPOS>MOLECULE
*****
 32 35 0 0 0
SMALL
GASTEIGER

@<TRIPOS>ATOM
      1 C          63.5071   90.7253   11.7218 C.2     1  UNL1        0.2525
      2 O          62.7784   91.4119   10.6048 O.2     1  UNL1       -0.2698
      3 N          63.3179   89.2546   11.9484 N.am    1  UNL1       -0.2660
      4 C          63.9758   88.4358   13.0192 C.3     1  UNL1        0.1236
      5 C          63.5021   87.0197   12.8765 C.ar    1  UNL1        0.0338
      6 C          63.6159   85.6384   13.4502 C.ar    1  UNL1        0.0991
      7 N          62.7357   84.7283   12.6457 N.ar    1  UNL1       -0.2265
      8 N          62.0778   85.5473   11.5749 N.ar    1  UNL1       -0.1679
      9 C          62.5515   86.9634   11.7176 C.ar    1  UNL1        0.0981
     10 C          62.4377   88.3447   11.1439 C.3     1  UNL1        0.1414
     11 C          62.5465   83.2578   12.8723 C.ar    1  UNL1        0.1102
     12 C          61.9706   82.7664   14.1672 C.ar    1  UNL1        0.0214
     13 C          61.7814   81.2957   14.3938 C.ar    1  UNL1        0.0017
     14 C          62.1682   80.3164   13.3255 C.ar    1  UNL1        0.0024
     15 C          62.7441   80.8078   12.0305 C.ar    1  UNL1        0.0312
     16 C          62.9333   82.2784   11.8039 C.ar    1  UNL1        0.1577
     17 F          63.5092   82.7698   10.5090 F       1  UNL1       -0.2026
     18 C          65.5419   92.3137   12.0161 C.ar    1  UNL1        0.1431
     19 C          66.4597   93.0978   12.9065 C.ar    1  UNL1        0.0377
     20 C          66.2604   93.0776   14.3931 C.ar    1  UNL1        0.0134
     21 C          65.1434   92.2734   14.9893 C.ar    1  UNL1        0.0688
     22 C          64.2256   91.4893   14.0987 C.ar    1  UNL1        0.0178
     23 C          64.4248   91.5094   12.6122 C.ar    1  UNL1        0.0881
     24 C          64.9441   92.2532   16.4758 C.1     1  UNL1        0.1004
     25 N          64.7449   92.2330   17.9624 N.1     1  UNL1       -0.1908
     26 O          65.7412   92.3339   10.5295 O.3     1  UNL1       -0.4702
     27 C          66.4854   94.7421    9.8998 C.3     1  UNL1        0.0566
     28 C          66.7468   93.2652    9.9202 C.3     1  UNL1        0.2599
     29 C          68.0138   92.7195    9.3312 C.3     1  UNL1        0.4340
     30 F          69.2808   92.1738    8.7423 F       1  UNL1       -0.1664
     31 F          68.0674   91.6791   10.4104 F       1  UNL1       -0.1664
     32 F          67.9603   93.7599    8.2520 F       1  UNL1       -0.1664
@<TRIPOS>BOND
     1    28    27    1
     2    28    26    1
     3    26    18    1
     4    18    19   ar
     5    19    20   ar
     6    20    21   ar
     7    21    24    1
     8    24    25    3
     9    21    22   ar
    10    22    23   ar
    11    23     1    1
    12     1     2    2
    13     1     3   am
    14     3     4    1
    15     4     5    1
    16     5     6   ar
    17     6     7   ar
    18     7    11    1
    19    11    12   ar
    20    12    13   ar
    21    13    14   ar
    22    14    15   ar
    23    15    16   ar
    24    16    17    1
    25     7     8   ar
    26     8     9   ar
    27     9    10    1
    28    28    29    1
    29    29    30    1
    30    29    31    1
    31    29    32    1
    32    23    18   ar
    33    10     3    1
    34     9     5   ar
    35    16    11   ar
@<TRIPOS>MOLECULE
*****
 32 35 0 0 0
SMALL
GASTEIGER

@<TRIPOS>ATOM
      1 C          62.7171   90.2793   11.2359 C.2     1  UNL1        0.2525
      2 O          61.7000   90.9093   10.3310 O.2     1  UNL1       -0.2698
      3 N          62.6671   88.8052   11.5091 N.am    1  UNL1       -0.2660
      4 C          63.6111   88.0388   12.3873 C.3     1  UNL1        0.1236
      5 C          63.1917   86.5987   12.3729 C.ar    1  UNL1        0.0338
      6 C          63.5160   85.2349   12.9069 C.ar    1  UNL1        0.0991
      7 N          62.5132   84.2685   12.3498 N.ar    1  UNL1       -0.2265
      8 N          61.5691   85.0350   11.4715 N.ar    1  UNL1       -0.1679
      9 C          61.9885   86.4751   11.4858 C.ar    1  UNL1        0.0981
     10 C          61.6642   87.8388   10.9519 C.3     1  UNL1        0.1414
     11 C          62.4632   82.7945   12.6229 C.ar    1  UNL1        0.1102
     12 C          61.9274   82.2918   13.9306 C.ar    1  UNL1        0.0214
     13 C          61.8774   80.8177   14.2039 C.ar    1  UNL1        0.0017
     14 C          62.3632   79.8463   13.1693 C.ar    1  UNL1        0.0024
     15 C          62.8990   80.3490   11.8614 C.ar    1  UNL1        0.0312
     16 C          62.9490   81.8230   11.5883 C.ar    1  UNL1        0.1577
     17 F          63.4847   82.3257   10.2805 F       1  UNL1       -0.2026
     18 C          63.9240   91.1621   13.3605 C.ar    1  UNL1        0.1431
     19 C          64.9910   92.0062   13.9921 C.ar    1  UNL1        0.0377
     20 C          65.9181   92.8116   13.1308 C.ar    1  UNL1        0.0134
     21 C          65.7782   92.7729   11.6378 C.ar    1  UNL1        0.0688
     22 C          64.7111   91.9287   11.0062 C.ar    1  UNL1        0.0178
     23 C          63.7841   91.1234   11.8675 C.ar    1  UNL1        0.0881
     24 C          66.7053   93.5783   10.7765 C.1     1  UNL1        0.1004
     25 N          67.6324   94.3836    9.9152 N.1     1  UNL1       -0.1908
     26 O          62.9969   90.3568   14.2218 O.3     1  UNL1       -0.4702
     27 C          63.6695   90.9768   16.6535 C.3     1  UNL1        0.0566
     28 C          63.4241   89.9398   15.5979 C.3     1  UNL1        0.2599
     29 C          63.6059   88.4858   15.9184 C.3     1  UNL1        0.4340
     30 F          63.7877   87.0317   16.2387 F       1  UNL1       -0.1664
     31 F          64.7520   88.4163   14.9531 F       1  UNL1       -0.1664
     32 F          62.4598   88.5551   16.8836 F       1  UNL1       -0.1664
@<TRIPOS>BOND
     1    28    27    1
     2    28    26    1
     3    26    18    1
     4    18    19   ar
     5    19    20   ar
     6    20    21   ar
     7    21    24    1
     8    24    25    3
     9    21    22   ar
    10    22    23   ar
    11    23     1    1
    12     1     2    2
    13     1     3   am
    14     3     4    1
    15     4     5    1
    16     5     6   ar
    17     6     7   ar
    18     7    11    1
    19    11    12   ar
    20    12    13   ar
    21    13    14   ar
    22    14    15   ar
    23    15    16   ar
    24    16    17    1
    25     7     8   ar
    26     8     9   ar
    27     9    10    1
    28    28    29    1
    29    29    30    1
    30    29    31    1
    31    29    32    1
    32    23    18   ar
    33    10     3    1
    34     9     5   ar
    35    16    11   ar
@<TRIPOS>MOLECULE
*****
 32 35 0 0 0
SMALL
GASTEIGER

@<TRIPOS>ATOM
      1 C          64.0919   90.2296   15.5957 C.2     1  UNL1        0.2525
      2 O          63.5285   90.8302   16.8494 O.2     1  UNL1       -0.2698
      3 N          63.8333   88.7878   15.2728 N.am    1  UNL1       -0.2660
      4 C          64.3285   88.0527   14.0627 C.3     1  UNL1        0.1236
      5 C          63.8353   86.6386   14.1454 C.ar    1  UNL1        0.0338
      6 C          63.8365   85.3102   13.4486 C.ar    1  UNL1        0.0991
      7 N          63.0372   84.3503   14.2792 N.ar    1  UNL1       -0.2265
      8 N          62.5421   85.0855   15.4894 N.ar    1  UNL1       -0.1679
      9 C          63.0353   86.4996   15.4067 C.ar    1  UNL1        0.0981
     10 C          63.0341   87.8280   16.1035 C.3     1  UNL1        0.1414
     11 C          62.7786   82.9086   13.9564 C.ar    1  UNL1        0.1102
     12 C          61.5752   82.2168   14.5250 C.ar    1  UNL1        0.0214
     13 C          61.3165   80.7750   14.2021 C.ar    1  UNL1        0.0017
     14 C          62.2613   80.0249   13.3107 C.ar    1  UNL1        0.0024
     15 C          63.4648   80.7166   12.7421 C.ar    1  UNL1        0.0312
     16 C          63.7234   82.1583   13.0649 C.ar    1  UNL1        0.1577
     17 F          64.9268   82.8500   12.4963 F       1  UNL1       -0.2026
     18 C          64.3494   91.4964   13.3419 C.ar    1  UNL1        0.1431
     19 C          65.1715   92.3376   12.4112 C.ar    1  UNL1        0.0377
     20 C          66.5584   92.7534   12.8033 C.ar    1  UNL1        0.0134
     21 C          67.1231   92.3279   14.1262 C.ar    1  UNL1        0.0688
     22 C          66.3009   91.4867   15.0570 C.ar    1  UNL1        0.0178
     23 C          64.9140   91.0709   14.6649 C.ar    1  UNL1        0.0881
     24 C          68.5100   92.7437   14.5183 C.1     1  UNL1        0.1004
     25 N          69.8968   93.1595   14.9103 N.1     1  UNL1       -0.1908
     26 O          62.9625   91.0806   12.9499 O.3     1  UNL1       -0.4702
     27 C          63.2655   91.1823   10.3715 C.3     1  UNL1        0.0566
     28 C          62.7090   90.5044   11.5883 C.3     1  UNL1        0.2599
     29 C          61.8990   89.2502   11.4438 C.3     1  UNL1        0.4340
     30 F          61.0889   87.9961   11.2993 F       1  UNL1       -0.1664
     31 F          61.0243   89.6838   12.5827 F       1  UNL1       -0.1664
     32 F          62.7736   88.8165   10.3049 F       1  UNL1       -0.1664
@<TRIPOS>BOND
     1    28    27    1
     2    28    26    1
     3    26    18    1
     4    18    19   ar
     5    19    20   ar
     6    20    21   ar
     7    21    24    1
     8    24    25    3
     9    21    22   ar
    10    22    23   ar
    11    23     1    1
    12     1     2    2
    13     1     3   am
    14     3     4    1
    15     4     5    1
    16     5     6   ar
    17     6     7   ar
    18     7    11    1
    19    11    12   ar
    20    12    13   ar
    21    13    14   ar
    22    14    15   ar
    23    15    16   ar
    24    16    17    1
    25     7     8   ar
    26     8     9   ar
    27     9    10    1
    28    28    29    1
    29    29    30    1
    30    29    31    1
    31    29    32    1
    32    23    18   ar
    33    10     3    1
    34     9     5   ar
    35    16    11   ar
@<TRIPOS>MOLECULE
*****
 32 35 0 0 0
SMALL
GASTEIGER

@<TRIPOS>ATOM
      1 C          63.7711   88.5329   15.2876 C.2     1  UNL1        0.2525
      2 O          63.4764   88.7271   16.7455 O.2     1  UNL1       -0.2698
      3 N          63.6191   87.1763   14.6659 N.am    1  UNL1       -0.2660
      4 C          63.8760   86.8313   13.2289 C.3     1  UNL1        0.1236
      5 C          63.5991   85.3683   13.0469 C.ar    1  UNL1        0.0338
      6 C          63.5868   84.2509   12.0464 C.ar    1  UNL1        0.0991
      7 N          63.1512   83.0011   12.7524 N.ar    1  UNL1       -0.2265
      8 N          62.8942   83.3463   14.1895 N.ar    1  UNL1       -0.1679
      9 C          63.1711   84.8093   14.3714 C.ar    1  UNL1        0.0981
     10 C          63.1834   85.9267   15.3720 C.3     1  UNL1        0.1414
     11 C          62.9992   81.6446   12.1308 C.ar    1  UNL1        0.1102
     12 C          63.2313   81.4633   10.6600 C.ar    1  UNL1        0.0214
     13 C          63.0793   80.1067   10.0382 C.ar    1  UNL1        0.0017
     14 C          62.6951   78.9314   10.8873 C.ar    1  UNL1        0.0024
     15 C          62.4629   79.1127   12.3582 C.ar    1  UNL1        0.0312
     16 C          62.6149   80.4692   12.9798 C.ar    1  UNL1        0.1577
     17 F          62.3828   80.6505   14.4506 F       1  UNL1       -0.2026
     18 C          63.3361   90.2124   13.3535 C.ar    1  UNL1        0.1431
     19 C          63.7828   91.3748   12.5174 C.ar    1  UNL1        0.0377
     20 C          65.1113   92.0203   12.7792 C.ar    1  UNL1        0.0134
     21 C          65.9930   91.5034   13.8770 C.ar    1  UNL1        0.0688
     22 C          65.5462   90.3409   14.7132 C.ar    1  UNL1        0.0178
     23 C          64.2178   89.6954   14.4514 C.ar    1  UNL1        0.0881
     24 C          67.3215   92.1490   14.1388 C.1     1  UNL1        0.1004
     25 N          68.6499   92.7945   14.4005 N.1     1  UNL1       -0.1908
     26 O          62.0076   89.5668   13.0918 O.3     1  UNL1       -0.4702
     27 C          60.3007   90.4544   11.3457 C.3     1  UNL1        0.0566
     28 C          61.4428   89.5497   11.7023 C.3     1  UNL1        0.2599
     29 C          62.0202   88.6279   10.6694 C.3     1  UNL1        0.4340
     30 F          62.5976   87.7061    9.6365 F       1  UNL1       -0.1664
     31 F          61.2724   87.4784   11.2773 F       1  UNL1       -0.1664
     32 F          62.7680   89.7774   10.0615 F       1  UNL1       -0.1664
@<TRIPOS>BOND
     1    28    27    1
     2    28    26    1
     3    26    18    1
     4    18    19   ar
     5    19    20   ar
     6    20    21   ar
     7    21    24    1
     8    24    25    3
     9    21    22   ar
    10    22    23   ar
    11    23     1    1
    12     1     2    2
    13     1     3   am
    14     3     4    1
    15     4     5    1
    16     5     6   ar
    17     6     7   ar
    18     7    11    1
    19    11    12   ar
    20    12    13   ar
    21    13    14   ar
    22    14    15   ar
    23    15    16   ar
    24    16    17    1
    25     7     8   ar
    26     8     9   ar
    27     9    10    1
    28    28    29    1
    29    29    30    1
    30    29    31    1
    31    29    32    1
    32    23    18   ar
    33    10     3    1
    34     9     5   ar
    35    16    11   ar
@<TRIPOS>MOLECULE
*****
 32 35 0 0 0
SMALL
GASTEIGER

@<TRIPOS>ATOM
      1 C          60.1329   88.7589   11.4759 C.2     1  UNL1        0.2525
      2 O          58.9233   88.5643   12.3414 O.2     1  UNL1       -0.2698
      3 N          61.3722   89.3809   12.0480 N.am    1  UNL1       -0.2660
      4 C          62.6517   89.6378   11.3085 C.3     1  UNL1        0.1236
      5 C          63.6198   90.2709   12.2635 C.ar    1  UNL1        0.0338
      6 C          65.0090   90.8209   12.3967 C.ar    1  UNL1        0.0991
      7 N          65.1864   91.2952   13.8086 N.ar    1  UNL1       -0.2265
      8 N          63.9068   91.0383   14.5481 N.ar    1  UNL1       -0.1679
      9 C          62.9387   90.4052   13.5931 C.ar    1  UNL1        0.0981
     10 C          61.5495   89.8552   13.4599 C.3     1  UNL1        0.1414
     11 C          66.4256   91.9172   14.3807 C.ar    1  UNL1        0.1102
     12 C          67.7075   91.8875   13.6024 C.ar    1  UNL1        0.0214
     13 C          68.9469   92.5095   14.1744 C.ar    1  UNL1        0.0017
     14 C          68.9042   93.1612   15.5248 C.ar    1  UNL1        0.0024
     15 C          67.6222   93.1909   16.3031 C.ar    1  UNL1        0.0312
     16 C          66.3830   92.5689   15.7311 C.ar    1  UNL1        0.1577
     17 F          65.1011   92.5986   16.5094 F       1  UNL1       -0.2026
     18 C          60.4632   86.9235    9.6668 C.ar    1  UNL1        0.1431
     19 C          60.4334   86.4963    8.2293 C.ar    1  UNL1        0.0377
     20 C          60.0436   87.4769    7.1633 C.ar    1  UNL1        0.0134
     21 C          59.6836   88.8849    7.5348 C.ar    1  UNL1        0.0688
     22 C          59.7134   89.3122    8.9724 C.ar    1  UNL1        0.0178
     23 C          60.1031   88.3315   10.0384 C.ar    1  UNL1        0.0881
     24 C          59.2938   89.8655    6.4687 C.1     1  UNL1        0.1004
     25 N          58.9041   90.8461    5.4027 N.1     1  UNL1       -0.1908
     26 O          60.8529   85.9429   10.7329 O.3     1  UNL1       -0.4702
     27 C          62.9672   85.0944    9.4839 C.3     1  UNL1        0.0566
     28 C          62.2449   85.3850   10.7661 C.3     1  UNL1        0.2599
     29 C          62.9145   85.1177   12.0814 C.3     1  UNL1        0.4340
     30 F          63.5842   84.8504   13.3967 F       1  UNL1       -0.1664
     31 F          62.7048   83.6449   11.8889 F       1  UNL1       -0.1664
     32 F          63.1243   86.5904   12.2739 F       1  UNL1       -0.1664
@<TRIPOS>BOND
     1    28    27    1
     2    28    26    1
     3    26    18    1
     4    18    19   ar
     5    19    20   ar
     6    20    21   ar
     7    21    24    1
     8    24    25    3
     9    21    22   ar
    10    22    23   ar
    11    23     1    1
    12     1     2    2
    13     1     3   am
    14     3     4    1
    15     4     5    1
    16     5     6   ar
    17     6     7   ar
    18     7    11    1
    19    11    12   ar
    20    12    13   ar
    21    13    14   ar
    22    14    15   ar
    23    15    16   ar
    24    16    17    1
    25     7     8   ar
    26     8     9   ar
    27     9    10    1
    28    28    29    1
    29    29    30    1
    30    29    31    1
    31    29    32    1
    32    23    18   ar
    33    10     3    1
    34     9     5   ar
    35    16    11   ar
@<TRIPOS>MOLECULE
*****
 32 35 0 0 0
SMALL
GASTEIGER

@<TRIPOS>ATOM
      1 C          64.2948   89.8167   13.9251 C.2     1  UNL1        0.2525
      2 O          64.7037   90.4054   15.2428 O.2     1  UNL1       -0.2698
      3 N          63.9694   88.3559   13.8249 N.am    1  UNL1       -0.2660
      4 C          63.5481   87.6297   12.5819 C.3     1  UNL1        0.1236
      5 C          63.3265   86.1897   12.9390 C.ar    1  UNL1        0.0338
      6 C          62.9292   84.8510   12.3914 C.ar    1  UNL1        0.0991
      7 N          62.9679   83.8598   13.5167 N.ar    1  UNL1       -0.2265
      8 N          63.3893   84.5861   14.7597 N.ar    1  UNL1       -0.1679
      9 C          63.6108   86.0260   14.4027 C.ar    1  UNL1        0.0981
     10 C          64.0082   87.3648   14.9502 C.3     1  UNL1        0.1414
     11 C          62.6426   82.3990   13.4165 C.ar    1  UNL1        0.1102
     12 C          61.6490   81.7857   14.3580 C.ar    1  UNL1        0.0214
     13 C          61.3235   80.3248   14.2579 C.ar    1  UNL1        0.0017
     14 C          61.9918   79.4773   13.2162 C.ar    1  UNL1        0.0024
     15 C          62.9855   80.0907   12.2746 C.ar    1  UNL1        0.0312
     16 C          63.3108   81.5514   12.3747 C.ar    1  UNL1        0.1577
     17 F          64.3044   82.1648   11.4332 F       1  UNL1       -0.2026
     18 C          62.9779   90.6694   11.8541 C.ar    1  UNL1        0.1431
     19 C          62.8944   91.5416   10.6367 C.ar    1  UNL1        0.0377
     20 C          64.0443   92.4334   10.2727 C.ar    1  UNL1        0.0134
     21 C          65.2776   92.4530   11.1262 C.ar    1  UNL1        0.0688
     22 C          65.3611   91.5807   12.3437 C.ar    1  UNL1        0.0178
     23 C          64.2112   90.6889   12.7077 C.ar    1  UNL1        0.0881
     24 C          66.4275   93.3448   10.7622 C.1     1  UNL1        0.1004
     25 N          67.5773   94.2367   10.3981 N.1     1  UNL1       -0.1908
     26 O          61.8280   89.7776   12.2181 O.3     1  UNL1       -0.4702
     27 C          59.5132   90.5896   11.3625 C.3     1  UNL1        0.0566
     28 C          60.6654   89.6327   11.2814 C.3     1  UNL1        0.2599
     29 C          60.6552   88.5309   10.2636 C.3     1  UNL1        0.4340
     30 F          60.6450   87.4290    9.2459 F       1  UNL1       -0.1664
     31 F          60.5103   87.5185   11.3610 F       1  UNL1       -0.1664
     32 F          60.8001   89.5432    9.1662 F       1  UNL1       -0.1664
@<TRIPOS>BOND
     1    28    27    1
     2    28    26    1
     3    26    18    1
     4    18    19   ar
     5    19    20   ar
     6    20    21   ar
     7    21    24    1
     8    24    25    3
     9    21    22   ar
    10    22    23   ar
    11    23     1    1
    12     1     2    2
    13     1     3   am
    14     3     4    1
    15     4     5    1
    16     5     6   ar
    17     6     7   ar
    18     7    11    1
    19    11    12   ar
    20    12    13   ar
    21    13    14   ar
    22    14    15   ar
    23    15    16   ar
    24    16    17    1
    25     7     8   ar
    26     8     9   ar
    27     9    10    1
    28    28    29    1
    29    29    30    1
    30    29    31    1
    31    29    32    1
    32    23    18   ar
    33    10     3    1
    34     9     5   ar
    35    16    11   ar
@<TRIPOS>MOLECULE
*****
 32 35 0 0 0
SMALL
GASTEIGER

@<TRIPOS>ATOM
      1 C          60.4772   92.7049   -0.7482 C.2     1  UNL1        0.2525
      2 O          60.5061   91.3715   -0.0619 O.2     1  UNL1       -0.2698
      3 N          59.1701   93.2915   -1.1928 N.am    1  UNL1       -0.2660
      4 C          58.9854   94.6079   -1.8876 C.3     1  UNL1        0.1236
      5 C          57.5194   94.7945   -2.1448 C.ar    1  UNL1        0.0338
      6 C          56.4992   95.7235   -2.7332 C.ar    1  UNL1        0.0991
      7 N          55.1474   95.0965   -2.5610 N.ar    1  UNL1       -0.2265
      8 N          55.3322   93.7800   -1.8662 N.ar    1  UNL1       -0.1679
      9 C          56.7982   93.5934   -1.6090 C.ar    1  UNL1        0.0981
     10 C          57.8184   92.6644   -1.0206 C.3     1  UNL1        0.1414
     11 C          53.8404   95.6830   -3.0056 C.ar    1  UNL1        0.1102
     12 C          52.7498   95.9288   -2.0055 C.ar    1  UNL1        0.0214
     13 C          51.4427   96.5153   -2.4500 C.ar    1  UNL1        0.0017
     14 C          51.2263   96.8560   -3.8947 C.ar    1  UNL1        0.0024
     15 C          52.3169   96.6102   -4.8948 C.ar    1  UNL1        0.0312
     16 C          53.6239   96.0237   -4.4503 C.ar    1  UNL1        0.1577
     17 F          54.7145   95.7779   -5.4504 F       1  UNL1       -0.2026
     18 C          62.3703   94.2625    0.1122 C.ar    1  UNL1        0.1431
     19 C          63.6484   95.0094   -0.1296 C.ar    1  UNL1        0.0377
     20 C          64.3116   94.9457   -1.4735 C.ar    1  UNL1        0.0134
     21 C          63.6967   94.1352   -2.5757 C.ar    1  UNL1        0.0688
     22 C          62.4185   93.3882   -2.3339 C.ar    1  UNL1        0.0178
     23 C          61.7553   93.4519   -0.9900 C.ar    1  UNL1        0.0881
     24 C          64.3598   94.0716   -3.9196 C.1     1  UNL1        0.1004
     25 N          65.0230   94.0079   -5.2636 N.1     1  UNL1       -0.1908
     26 O          61.7072   94.3261    1.4561 O.3     1  UNL1       -0.4702
     27 C          63.0021   92.3431    2.5243 C.3     1  UNL1        0.0566
     28 C          61.7368   93.1327    2.3644 C.3     1  UNL1        0.2599
     29 C          60.5011   92.7289    3.1126 C.3     1  UNL1        0.4340
     30 F          59.2653   92.3251    3.8609 F       1  UNL1       -0.1664
     31 F          59.6785   93.6309    2.2410 F       1  UNL1       -0.1664
     32 F          61.3236   91.8269    3.9843 F       1  UNL1       -0.1664
@<TRIPOS>BOND
     1    28    27    1
     2    28    26    1
     3    26    18    1
     4    18    19   ar
     5    19    20   ar
     6    20    21   ar
     7    21    24    1
     8    24    25    3
     9    21    22   ar
    10    22    23   ar
    11    23     1    1
    12     1     2    2
    13     1     3   am
    14     3     4    1
    15     4     5    1
    16     5     6   ar
    17     6     7   ar
    18     7    11    1
    19    11    12   ar
    20    12    13   ar
    21    13    14   ar
    22    14    15   ar
    23    15    16   ar
    24    16    17    1
    25     7     8   ar
    26     8     9   ar
    27     9    10    1
    28    28    29    1
    29    29    30    1
    30    29    31    1
    31    29    32    1
    32    23    18   ar
    33    10     3    1
    34     9     5   ar
    35    16    11   ar
@<TRIPOS>MOLECULE
*****
 32 35 0 0 0
SMALL
GASTEIGER

@<TRIPOS>ATOM
      1 C          60.8500   93.1046   -1.2573 C.2     1  UNL1        0.2525
      2 O          60.9672   92.0094   -0.2391 O.2     1  UNL1       -0.2698
      3 N          59.4987   93.6320   -1.6394 N.am    1  UNL1       -0.2660
      4 C          59.2261   94.7187   -2.6368 C.3     1  UNL1        0.1236
      5 C          57.7417   94.9235   -2.7050 C.ar    1  UNL1        0.0338
      6 C          56.6558   95.7218   -3.3635 C.ar    1  UNL1        0.0991
      7 N          55.3399   95.2550   -2.8154 N.ar    1  UNL1       -0.2265
      8 N          55.6125   94.1682   -1.8180 N.ar    1  UNL1       -0.1679
      9 C          57.0969   93.9634   -1.7498 C.ar    1  UNL1        0.0981
     10 C          58.1828   93.1651   -1.0913 C.3     1  UNL1        0.1414
     11 C          53.9887   95.7823   -3.1974 C.ar    1  UNL1        0.1102
     12 C          53.6245   95.9340   -4.6446 C.ar    1  UNL1        0.0214
     13 C          52.2733   96.4614   -5.0267 C.ar    1  UNL1        0.0017
     14 C          51.2861   96.8370   -3.9616 C.ar    1  UNL1        0.0024
     15 C          51.6503   96.6852   -2.5143 C.ar    1  UNL1        0.0312
     16 C          53.0015   96.1579   -2.1323 C.ar    1  UNL1        0.1577
     17 F          53.3656   96.0061   -0.6851 F       1  UNL1       -0.2026
     18 C          63.0084   94.5415   -1.0932 C.ar    1  UNL1        0.1431
     19 C          64.2424   95.1093   -1.7294 C.ar    1  UNL1        0.0377
     20 C          64.5521   94.8081   -3.1658 C.ar    1  UNL1        0.0134
     21 C          63.6278   93.9391   -3.9661 C.ar    1  UNL1        0.0688
     22 C          62.3937   93.3713   -3.3299 C.ar    1  UNL1        0.0178
     23 C          62.0840   93.6724   -1.8935 C.ar    1  UNL1        0.0881
     24 C          63.9376   93.6379   -5.4026 C.1     1  UNL1        0.1004
     25 N          64.2473   93.3367   -6.8390 N.1     1  UNL1       -0.1908
     26 O          62.6986   94.8427    0.3432 O.3     1  UNL1       -0.4702
     27 C          64.6090   95.2454    2.0574 C.3     1  UNL1        0.0566
     28 C          63.5998   94.3315    1.4279 C.3     1  UNL1        0.2599
     29 C          63.4916   92.9063    1.8831 C.3     1  UNL1        0.4340
     30 F          63.3834   91.4812    2.3384 F       1  UNL1       -0.1664
     31 F          62.1420   93.1962    2.4701 F       1  UNL1       -0.1664
     32 F          64.8412   92.6163    1.2962 F       1  UNL1       -0.1664
@<TRIPOS>BOND
     1    28    27    1
     2    28    26    1
     3    26    18    1
     4    18    19   ar
     5    19    20   ar
     6    20    21   ar
     7    21    24    1
     8    24    25    3
     9    21    22   ar
    10    22    23   ar
    11    23     1    1
    12     1     2    2
    13     1     3   am
    14     3     4    1
    15     4     5    1
    16     5     6   ar
    17     6     7   ar
    18     7    11    1
    19    11    12   ar
    20    12    13   ar
    21    13    14   ar
    22    14    15   ar
    23    15    16   ar
    24    16    17    1
    25     7     8   ar
    26     8     9   ar
    27     9    10    1
    28    28    29    1
    29    29    30    1
    30    29    31    1
    31    29    32    1
    32    23    18   ar
    33    10     3    1
    34     9     5   ar
    35    16    11   ar
@<TRIPOS>MOLECULE
*****
 32 35 0 0 0
SMALL
GASTEIGER

@<TRIPOS>ATOM
      1 C          64.0242   88.1071   14.3512 C.2     1  UNL1        0.2525
      2 O          64.4516   88.3139   15.7740 O.2     1  UNL1       -0.2698
      3 N          63.8226   86.7177   13.8230 N.am    1  UNL1       -0.2660
      4 C          63.3991   86.3568   12.4300 C.3     1  UNL1        0.1236
      5 C          63.3239   84.8613   12.3413 C.ar    1  UNL1        0.0338
      6 C          63.0156   83.7140   11.4255 C.ar    1  UNL1        0.0991
      7 N          63.2021   82.4415   12.1976 N.ar    1  UNL1       -0.2265
      8 N          63.6257   82.8025   13.5906 N.ar    1  UNL1       -0.1679
      9 C          63.7009   84.2980   13.6794 C.ar    1  UNL1        0.0981
     10 C          64.0092   85.4453   14.5952 C.3     1  UNL1        0.1414
     11 C          63.0005   81.0522   11.6695 C.ar    1  UNL1        0.1102
     12 C          63.1545   80.7776   10.2030 C.ar    1  UNL1        0.0214
     13 C          62.9529   79.3881    9.6748 C.ar    1  UNL1        0.0017
     14 C          62.5973   78.2733   10.6133 C.ar    1  UNL1        0.0024
     15 C          62.4433   78.5480   12.0799 C.ar    1  UNL1        0.0312
     16 C          62.6449   79.9373   12.6080 C.ar    1  UNL1        0.1577
     17 F          62.4909   80.2119   14.0746 F       1  UNL1       -0.2026
     18 C          64.7519   90.4473   13.4885 C.ar    1  UNL1        0.1431
     19 C          64.5261   91.6298   12.5938 C.ar    1  UNL1        0.0377
     20 C          63.3470   91.6548   11.6669 C.ar    1  UNL1        0.0134
     21 C          62.3936   90.4972   11.6347 C.ar    1  UNL1        0.0688
     22 C          62.6194   89.3146   12.5295 C.ar    1  UNL1        0.0178
     23 C          63.7985   89.2897   13.4564 C.ar    1  UNL1        0.0881
     24 C          61.2145   90.5221   10.7078 C.1     1  UNL1        0.1004
     25 N          60.0354   90.5471    9.7810 N.1     1  UNL1       -0.1908
     26 O          65.9309   90.4224   14.4154 O.3     1  UNL1       -0.4702
     27 C          65.3969   92.4343   15.9701 C.3     1  UNL1        0.0566
     28 C          66.3659   91.6789   15.1097 C.3     1  UNL1        0.2599
     29 C          67.7699   92.1799   14.9434 C.3     1  UNL1        0.4340
     30 F          69.1739   92.6810   14.7771 F       1  UNL1       -0.1664
     31 F          67.6312   92.0746   13.4535 F       1  UNL1       -0.1664
     32 F          67.9088   92.2853   16.4333 F       1  UNL1       -0.1664
@<TRIPOS>BOND
     1    28    27    1
     2    28    26    1
     3    26    18    1
     4    18    19   ar
     5    19    20   ar
     6    20    21   ar
     7    21    24    1
     8    24    25    3
     9    21    22   ar
    10    22    23   ar
    11    23     1    1
    12     1     2    2
    13     1     3   am
    14     3     4    1
    15     4     5    1
    16     5     6   ar
    17     6     7   ar
    18     7    11    1
    19    11    12   ar
    20    12    13   ar
    21    13    14   ar
    22    14    15   ar
    23    15    16   ar
    24    16    17    1
    25     7     8   ar
    26     8     9   ar
    27     9    10    1
    28    28    29    1
    29    29    30    1
    30    29    31    1
    31    29    32    1
    32    23    18   ar
    33    10     3    1
    34     9     5   ar
    35    16    11   ar
