@<TRIPOS>MOLECULE
*****
 23 26 0 0 0
SMALL
GASTEIGER

@<TRIPOS>ATOM
      1 C          62.9646   85.5277   12.4966 C.2     1  UNL1        0.3395
      2 O          63.9110   86.0337   13.5446 O.2     1  UNL1       -0.2452
      3 C          62.1048   82.5743   13.9137 C.2     1  UNL1        0.1257
      4 C          61.8231   81.1568   14.3152 C.2     1  UNL1        0.0331
      5 C          62.1831   80.0302   13.3925 C.2     1  UNL1        0.0040
      6 C          62.8249   80.3212   12.0684 C.2     1  UNL1        0.0155
      7 C          63.1066   81.7387   11.6668 C.2     1  UNL1        0.0702
      8 N          63.7249   82.3288   10.4342 N.2     1  UNL1       -0.2475
      9 C          63.7470   83.8200   10.5949 C.2     1  UNL1        0.1014
     10 C          63.1423   84.1515   11.9270 C.2     1  UNL1        0.0849
     11 C          62.7465   82.8653   12.5895 C.3     1  UNL1        0.1268
     12 C          62.6916   84.1103   15.9252 C.3     1  UNL1        0.2520
     13 O          61.7447   83.7008   14.8363 O.2     1  UNL1       -0.4750
     14 O          61.8404   86.3981   12.0182 O.3     1  UNL1       -0.4456
     15 C          61.9847   87.1769   10.7444 C.3     1  UNL1        0.2087
     16 C          61.2318   86.7545    9.5178 C.3     1  UNL1        0.0445
     17 C          61.8823   85.8514    8.5123 C.3     1  UNL1        0.0210
     18 C          61.1293   85.4290    7.2857 C.3     1  UNL1        0.0722
     19 N          59.7257   85.9098    7.0645 N.3     1  UNL1       -0.2727
     20 C          59.0752   86.8130    8.0700 C.3     1  UNL1        0.0722
     21 C          59.8282   87.2354    9.2967 C.3     1  UNL1        0.0210
     22 C          60.0985   86.1681    7.7518 C.3     1  UNL1        0.0722
     23 C          60.7793   86.5500    8.8610 C.3     1  UNL1        0.0210
@<TRIPOS>BOND
     1    12    13    1
     2    13     3    1
     3     3     4    2
     4     4     5    1
     5     5     6    2
     6     6     7    1
     7     7     8    2
     8     8     9    1
     9     9    10    2
    10    10     1    1
    11     1     2    2
    12     1    14    1
    13    14    15    1
    14    15    16    1
    15    16    17    1
    16    17    18    1
    17    18    19    1
    18    19    20    1
    19    20    21    1
    20    19    22    1
    21    22    23    1
    22    10    11    1
    23    11     3    1
    24    11     7    1
    25    21    16    1
    26    23    16    1
@<TRIPOS>MOLECULE
*****
 23 26 0 0 0
SMALL
GASTEIGER

@<TRIPOS>ATOM
      1 C          64.0222   88.0921   15.0079 C.2     1  UNL1        0.3395
      2 O          63.3081   88.0960   16.3269 O.2     1  UNL1       -0.2452
      3 C          62.8651   88.4110   11.8409 C.2     1  UNL1        0.1257
      4 C          62.4320   88.8093   10.4612 C.2     1  UNL1        0.0331
      5 C          62.6324   90.2192    9.9899 C.2     1  UNL1        0.0040
      6 C          63.2660   91.2307   10.8984 C.2     1  UNL1        0.0155
      7 C          63.6991   90.8324   12.2781 C.2     1  UNL1        0.0702
      8 N          64.3468   91.6048   13.3889 N.2     1  UNL1       -0.2475
      9 C          64.5467   90.6723   14.5467 C.2     1  UNL1        0.1014
     10 C          64.0225   89.3236   14.1515 C.2     1  UNL1        0.0849
     11 C          63.4987   89.4225   12.7494 C.3     1  UNL1        0.1268
     12 C          62.0665   85.9801   11.3905 C.3     1  UNL1        0.2520
     13 O          62.6647   87.0011   12.3122 O.2     1  UNL1       -0.4750
     14 O          64.7362   86.8566   14.5452 O.3     1  UNL1       -0.4456
     15 C          64.5267   85.5562   15.2629 C.3     1  UNL1        0.2087
     16 C          63.9334   84.3858   14.5363 C.3     1  UNL1        0.0445
     17 C          62.7412   83.6755   15.1055 C.3     1  UNL1        0.0210
     18 C          62.1480   82.5050   14.3788 C.3     1  UNL1        0.0722
     19 N          62.7469   82.0448   13.0828 N.3     1  UNL1       -0.2727
     20 C          63.9392   82.7551   12.5136 C.3     1  UNL1        0.0722
     21 C          64.5325   83.9256   13.2404 C.3     1  UNL1        0.0210
     22 C          63.1067   82.6910   13.4448 C.3     1  UNL1        0.0722
     23 C          63.6432   83.7493   14.1019 C.3     1  UNL1        0.0210
@<TRIPOS>BOND
     1    12    13    1
     2    13     3    1
     3     3     4    2
     4     4     5    1
     5     5     6    2
     6     6     7    1
     7     7     8    2
     8     8     9    1
     9     9    10    2
    10    10     1    1
    11     1     2    2
    12     1    14    1
    13    14    15    1
    14    15    16    1
    15    16    17    1
    16    17    18    1
    17    18    19    1
    18    19    20    1
    19    20    21    1
    20    19    22    1
    21    22    23    1
    22    10    11    1
    23    11     3    1
    24    11     7    1
    25    21    16    1
    26    23    16    1
@<TRIPOS>MOLECULE
*****
 23 26 0 0 0
SMALL
GASTEIGER

@<TRIPOS>ATOM
      1 C          61.8828   88.5893   11.2725 C.2     1  UNL1        0.3395
      2 O          60.5925   88.5904   12.0374 O.2     1  UNL1       -0.2452
      3 C          64.0880   89.7471   13.5674 C.2     1  UNL1        0.1257
      4 C          65.1016   90.4632   14.4099 C.2     1  UNL1        0.0331
      5 C          65.7070   91.7472   13.9255 C.2     1  UNL1        0.0040
      6 C          65.2989   92.3152   12.5986 C.2     1  UNL1        0.0155
      7 C          64.2853   91.5991   11.7561 C.2     1  UNL1        0.0702
      8 N          63.6917   91.9146   10.4151 N.2     1  UNL1       -0.2475
      9 C          62.7195   90.8255   10.0707 C.2     1  UNL1        0.1014
     10 C          62.7122   89.8370   11.1989 C.2     1  UNL1        0.0849
     11 C          63.6799   90.3151   12.2405 C.3     1  UNL1        0.1268
     12 C          64.3499   87.4187   14.6899 C.3     1  UNL1        0.2520
     13 O          63.4826   88.4630   14.0518 O.2     1  UNL1       -0.4750
     14 O          62.3437   87.3403   10.5812 O.3     1  UNL1       -0.4456
     15 C          61.8027   86.0064   11.0030 C.3     1  UNL1        0.2087
     16 C          62.7320   84.8425   11.1810 C.3     1  UNL1        0.0445
     17 C          63.2667   84.1192    9.9807 C.3     1  UNL1        0.0210
     18 C          64.1961   82.9554   10.1588 C.3     1  UNL1        0.0722
     19 N          64.5908   82.5147   11.5372 N.3     1  UNL1       -0.2727
     20 C          64.0561   83.2381   12.7376 C.3     1  UNL1        0.0722
     21 C          63.1267   84.4020   12.5595 C.3     1  UNL1        0.0210
     22 C          64.0788   83.1579   11.4897 C.3     1  UNL1        0.0722
     23 C          63.2385   84.2103   11.3288 C.3     1  UNL1        0.0210
@<TRIPOS>BOND
     1    12    13    1
     2    13     3    1
     3     3     4    2
     4     4     5    1
     5     5     6    2
     6     6     7    1
     7     7     8    2
     8     8     9    1
     9     9    10    2
    10    10     1    1
    11     1     2    2
    12     1    14    1
    13    14    15    1
    14    15    16    1
    15    16    17    1
    16    17    18    1
    17    18    19    1
    18    19    20    1
    19    20    21    1
    20    19    22    1
    21    22    23    1
    22    10    11    1
    23    11     3    1
    24    11     7    1
    25    21    16    1
    26    23    16    1
@<TRIPOS>MOLECULE
*****
 23 26 0 0 0
SMALL
GASTEIGER

@<TRIPOS>ATOM
      1 C          61.4760   89.6107   11.8304 C.2     1  UNL1        0.3395
      2 O          60.1322   90.2055   12.1307 O.2     1  UNL1       -0.2452
      3 C          63.7923   90.6358   14.0785 C.2     1  UNL1        0.1257
      4 C          64.9266   91.2223   14.8654 C.2     1  UNL1        0.0331
      5 C          65.9290   92.1097   14.1888 C.2     1  UNL1        0.0040
      6 C          65.7970   92.4105   12.7252 C.2     1  UNL1        0.0155
      7 C          64.6627   91.8240   11.9383 C.2     1  UNL1        0.0702
      8 N          64.2771   91.9414   10.4935 N.2     1  UNL1       -0.2475
      9 C          63.0364   91.1266   10.2772 C.2     1  UNL1        0.1014
     10 C          62.6553   90.5056   11.5883 C.2     1  UNL1        0.0849
     11 C          63.6603   90.9367   12.6150 C.3     1  UNL1        0.1268
     12 C          63.0073   89.3182   16.1756 C.3     1  UNL1        0.2520
     13 O          62.7899   89.7484   14.7552 O.2     1  UNL1       -0.4750
     14 O          61.6407   88.1208   11.7721 O.3     1  UNL1       -0.4456
     15 C          62.3477   87.4893   10.6097 C.3     1  UNL1        0.2087
     16 C          61.5558   86.9042    9.4781 C.3     1  UNL1        0.0445
     17 C          62.1941   85.9150    8.5486 C.3     1  UNL1        0.0210
     18 C          61.4020   85.3300    7.4171 C.3     1  UNL1        0.0722
     19 N          59.9717   85.7342    7.2150 N.3     1  UNL1       -0.2727
     20 C          59.3334   86.7234    8.1444 C.3     1  UNL1        0.0722
     21 C          60.1255   87.3085    9.2761 C.3     1  UNL1        0.0210
     22 C          60.3655   86.0817    7.8491 C.3     1  UNL1        0.0722
     23 C          61.0816   86.6108    8.8723 C.3     1  UNL1        0.0210
@<TRIPOS>BOND
     1    12    13    1
     2    13     3    1
     3     3     4    2
     4     4     5    1
     5     5     6    2
     6     6     7    1
     7     7     8    2
     8     8     9    1
     9     9    10    2
    10    10     1    1
    11     1     2    2
    12     1    14    1
    13    14    15    1
    14    15    16    1
    15    16    17    1
    16    17    18    1
    17    18    19    1
    18    19    20    1
    19    20    21    1
    20    19    22    1
    21    22    23    1
    22    10    11    1
    23    11     3    1
    24    11     7    1
    25    21    16    1
    26    23    16    1
@<TRIPOS>MOLECULE
*****
 23 26 0 0 0
SMALL
GASTEIGER

@<TRIPOS>ATOM
      1 C          63.6097   89.9762   15.5191 C.2     1  UNL1        0.3395
      2 O          63.0567   90.6687   16.7292 O.2     1  UNL1       -0.2452
      3 C          62.8210   90.5064   12.2684 C.2     1  UNL1        0.1257
      4 C          62.7026   90.8810   10.8208 C.2     1  UNL1        0.0331
      5 C          63.7679   91.7142   10.1721 C.2     1  UNL1        0.0040
      6 C          64.9517   92.1728   10.9710 C.2     1  UNL1        0.0155
      7 C          65.0701   91.7982   12.4186 C.2     1  UNL1        0.0702
      8 N          66.1144   92.1017   13.4518 N.2     1  UNL1       -0.2475
      9 C          65.6945   91.4562   14.7390 C.2     1  UNL1        0.1014
     10 C          64.3906   90.7536   14.5014 C.2     1  UNL1        0.0849
     11 C          64.0048   90.9650   13.0673 C.3     1  UNL1        0.1268
     12 C          60.4151   89.5259   12.2605 C.3     1  UNL1        0.2520
     13 O          61.7556   89.6732   12.9171 O.2     1  UNL1       -0.4750
     14 O          63.3819   88.5061   15.3267 O.3     1  UNL1       -0.4456
     15 C          64.4076   87.6751   14.6144 C.3     1  UNL1        0.2087
     16 C          64.1199   86.2372   14.2984 C.3     1  UNL1        0.0445
     17 C          64.5244   85.1619   15.2628 C.3     1  UNL1        0.0210
     18 C          64.2367   83.7241   14.9468 C.3     1  UNL1        0.0722
     19 N          63.5445   83.3615   13.6663 N.3     1  UNL1       -0.2727
     20 C          63.1400   84.4369   12.7019 C.3     1  UNL1        0.0722
     21 C          63.4277   85.8748   13.0180 C.3     1  UNL1        0.0210
     22 C          63.6809   84.1632   13.7960 C.3     1  UNL1        0.0722
     23 C          63.9410   85.4633   14.0816 C.3     1  UNL1        0.0210
@<TRIPOS>BOND
     1    12    13    1
     2    13     3    1
     3     3     4    2
     4     4     5    1
     5     5     6    2
     6     6     7    1
     7     7     8    2
     8     8     9    1
     9     9    10    2
    10    10     1    1
    11     1     2    2
    12     1    14    1
    13    14    15    1
    14    15    16    1
    15    16    17    1
    16    17    18    1
    17    18    19    1
    18    19    20    1
    19    20    21    1
    20    19    22    1
    21    22    23    1
    22    10    11    1
    23    11     3    1
    24    11     7    1
    25    21    16    1
    26    23    16    1
@<TRIPOS>MOLECULE
*****
 23 26 0 0 0
SMALL
GASTEIGER

@<TRIPOS>ATOM
      1 C          63.4598   89.8397   15.2059 C.2     1  UNL1        0.3395
      2 O          63.2684   90.8216   16.3235 O.2     1  UNL1       -0.2452
      3 C          65.7289   91.9308   13.8101 C.2     1  UNL1        0.1257
      4 C          66.5903   92.8226   12.9658 C.2     1  UNL1        0.0331
      5 C          66.2596   93.0328   11.5179 C.2     1  UNL1        0.0040
      6 C          65.0676   92.3512   10.9142 C.2     1  UNL1        0.0155
      7 C          64.2063   91.4594   11.7584 C.2     1  UNL1        0.0702
      8 N          62.9766   90.6604   11.4431 N.2     1  UNL1       -0.2475
      9 C          62.5472   89.9564   12.6961 C.2     1  UNL1        0.1014
     10 C          63.5116   90.3203   13.7859 C.2     1  UNL1        0.0849
     11 C          64.5369   91.2492   13.2064 C.3     1  UNL1        0.1268
     12 C          66.8870   92.7331   15.9929 C.3     1  UNL1        0.2520
     13 O          66.0596   91.7207   15.2580 O.2     1  UNL1       -0.4750
     14 O          63.5993   88.3771   15.5082 O.3     1  UNL1       -0.4456
     15 C          64.5146   87.5241   14.6807 C.3     1  UNL1        0.2087
     16 C          64.1104   86.1268   14.3145 C.3     1  UNL1        0.0445
     17 C          63.3801   85.8695   13.0299 C.3     1  UNL1        0.0210
     18 C          62.9759   84.4722   12.6638 C.3     1  UNL1        0.0722
     19 N          63.3021   83.3320   13.5824 N.3     1  UNL1       -0.2727
     20 C          64.0324   83.5893   14.8671 C.3     1  UNL1        0.0722
     21 C          64.4366   84.9868   15.2332 C.3     1  UNL1        0.0210
     22 C          63.5440   84.0806   13.8257 C.3     1  UNL1        0.0722
     23 C          63.9095   85.3440   14.1568 C.3     1  UNL1        0.0210
@<TRIPOS>BOND
     1    12    13    1
     2    13     3    1
     3     3     4    2
     4     4     5    1
     5     5     6    2
     6     6     7    1
     7     7     8    2
     8     8     9    1
     9     9    10    2
    10    10     1    1
    11     1     2    2
    12     1    14    1
    13    14    15    1
    14    15    16    1
    15    16    17    1
    16    17    18    1
    17    18    19    1
    18    19    20    1
    19    20    21    1
    20    19    22    1
    21    22    23    1
    22    10    11    1
    23    11     3    1
    24    11     7    1
    25    21    16    1
    26    23    16    1
@<TRIPOS>MOLECULE
*****
 23 26 0 0 0
SMALL
GASTEIGER

@<TRIPOS>ATOM
      1 C          63.0114   85.6252   11.8253 C.2     1  UNL1        0.3395
      2 O          63.4849   86.1591   13.1446 O.2     1  UNL1       -0.2452
      3 C          62.1873   82.9657   13.7534 C.2     1  UNL1        0.1257
      4 C          61.9169   81.6404   14.4018 C.2     1  UNL1        0.0331
      5 C          62.2595   80.3696   13.6824 C.2     1  UNL1        0.0040
      6 C          62.8727   80.4241   12.3146 C.2     1  UNL1        0.0155
      7 C          63.1431   81.7493   11.6661 C.2     1  UNL1        0.0702
      8 N          63.7342   82.1143   10.3367 N.2     1  UNL1       -0.2475
      9 C          63.7568   83.6106   10.2344 C.2     1  UNL1        0.1014
     10 C          63.1797   84.1705   11.5007 C.2     1  UNL1        0.0849
     11 C          62.8004   83.0202   12.3856 C.3     1  UNL1        0.1268
     12 C          62.4169   84.5061   15.8329 C.3     1  UNL1        0.2520
     13 O          61.8446   84.2365   14.4729 O.2     1  UNL1       -0.4750
     14 O          62.3696   86.5463   10.8303 O.3     1  UNL1       -0.4456
     15 C          61.6918   87.8002   11.2976 C.3     1  UNL1        0.2087
     16 C          62.4497   89.0941   11.3323 C.3     1  UNL1        0.0445
     17 C          62.4376   90.0028   10.1390 C.3     1  UNL1        0.0210
     18 C          63.1956   91.2967   10.1739 C.3     1  UNL1        0.0722
     19 N          63.9658   91.6820   11.4021 N.3     1  UNL1       -0.2727
     20 C          63.9780   90.7732   12.5954 C.3     1  UNL1        0.0722
     21 C          63.2199   89.4792   12.5605 C.3     1  UNL1        0.0210
     22 C          63.5657   90.9628   11.4299 C.3     1  UNL1        0.0722
     23 C          62.8803   89.7928   11.3985 C.3     1  UNL1        0.0210
@<TRIPOS>BOND
     1    12    13    1
     2    13     3    1
     3     3     4    2
     4     4     5    1
     5     5     6    2
     6     6     7    1
     7     7     8    2
     8     8     9    1
     9     9    10    2
    10    10     1    1
    11     1     2    2
    12     1    14    1
    13    14    15    1
    14    15    16    1
    15    16    17    1
    16    17    18    1
    17    18    19    1
    18    19    20    1
    19    20    21    1
    20    19    22    1
    21    22    23    1
    22    10    11    1
    23    11     3    1
    24    11     7    1
    25    21    16    1
    26    23    16    1
@<TRIPOS>MOLECULE
*****
 23 26 0 0 0
SMALL
GASTEIGER

@<TRIPOS>ATOM
      1 C          61.8543   87.4215   10.9751 C.2     1  UNL1        0.3395
      2 O          60.4950   87.3754   11.6075 O.2     1  UNL1       -0.2452
      3 C          63.3167   84.6847   12.3322 C.2     1  UNL1        0.1257
      4 C          63.9854   83.3873   12.6779 C.2     1  UNL1        0.0331
      5 C          64.3690   82.4281   11.5903 C.2     1  UNL1        0.0040
      6 C          64.0838   82.7663   10.1570 C.2     1  UNL1        0.0155
      7 C          63.4151   84.0637    9.8113 C.2     1  UNL1        0.0702
      8 N          63.0098   84.6654    8.4984 N.2     1  UNL1       -0.2475
      9 C          62.3758   85.9965    8.7746 C.2     1  UNL1        0.1014
     10 C          62.3893   86.2174   10.2581 C.2     1  UNL1        0.0849
     11 C          63.0316   85.0229   10.8989 C.3     1  UNL1        0.1268
     12 C          63.9939   86.2718   14.2745 C.3     1  UNL1        0.2520
     13 O          62.9332   85.6439   13.4197 O.2     1  UNL1       -0.4750
     14 O          62.6788   88.6718   11.0597 O.3     1  UNL1       -0.4456
     15 C          62.4835   89.6230   12.2030 C.3     1  UNL1        0.2087
     16 C          63.6429   90.4221   12.7201 C.3     1  UNL1        0.0445
     17 C          64.1643   91.5853   11.9294 C.3     1  UNL1        0.0210
     18 C          65.3236   92.3843   12.4466 C.3     1  UNL1        0.0722
     19 N          65.9616   92.0201   13.7545 N.3     1  UNL1       -0.2727
     20 C          65.4402   90.8570   14.5451 C.3     1  UNL1        0.0722
     21 C          64.2808   90.0579   14.0279 C.3     1  UNL1        0.0210
     22 C          65.3286   91.5527   13.5118 C.3     1  UNL1        0.0722
     23 C          64.2803   90.8302   13.0443 C.3     1  UNL1        0.0210
@<TRIPOS>BOND
     1    12    13    1
     2    13     3    1
     3     3     4    2
     4     4     5    1
     5     5     6    2
     6     6     7    1
     7     7     8    2
     8     8     9    1
     9     9    10    2
    10    10     1    1
    11     1     2    2
    12     1    14    1
    13    14    15    1
    14    15    16    1
    15    16    17    1
    16    17    18    1
    17    18    19    1
    18    19    20    1
    19    20    21    1
    20    19    22    1
    21    22    23    1
    22    10    11    1
    23    11     3    1
    24    11     7    1
    25    21    16    1
    26    23    16    1
@<TRIPOS>MOLECULE
*****
 23 26 0 0 0
SMALL
GASTEIGER

@<TRIPOS>ATOM
      1 C          62.3629   87.2936   11.9613 C.2     1  UNL1        0.3395
      2 O          63.5641   87.9163   12.6087 O.2     1  UNL1       -0.2452
      3 C          61.0148   86.3883    8.9892 C.2     1  UNL1        0.1257
      4 C          60.3109   86.2353    7.6735 C.2     1  UNL1        0.0331
      5 C          59.4978   87.3686    7.1217 C.2     1  UNL1        0.0040
      6 C          59.3886   88.6549    7.8856 C.2     1  UNL1        0.0155
      7 C          60.0926   88.8079    9.2013 C.2     1  UNL1        0.0702
      8 N          60.1679   89.9484   10.1726 N.2     1  UNL1       -0.2475
      9 C          61.0276   89.5200   11.3248 C.2     1  UNL1        0.1014
     10 C          61.4835   88.1147   11.0655 C.2     1  UNL1        0.0849
     11 C          60.9057   87.6746    9.7531 C.3     1  UNL1        0.1268
     12 C          63.1413   84.8978    8.9108 C.3     1  UNL1        0.2520
     13 O          61.8279   85.2550    9.5410 O.2     1  UNL1       -0.4750
     14 O          62.0411   85.8496   12.2096 O.3     1  UNL1       -0.4456
     15 C          63.0703   84.9464   12.8219 C.3     1  UNL1        0.2087
     16 C          62.8164   83.4706   12.9089 C.3     1  UNL1        0.0445
     17 C          62.2674   82.8772   14.1724 C.3     1  UNL1        0.0210
     18 C          62.0135   81.4014   14.2592 C.3     1  UNL1        0.0722
     19 N          62.3085   80.5190   13.0827 N.3     1  UNL1       -0.2727
     20 C          62.8575   81.1124   11.8192 C.3     1  UNL1        0.0722
     21 C          63.1114   82.5883   11.7322 C.3     1  UNL1        0.0210
     22 C          62.4640   81.3220   12.9877 C.3     1  UNL1        0.0722
     23 C          62.6937   82.6564   12.9090 C.3     1  UNL1        0.0210
@<TRIPOS>BOND
     1    12    13    1
     2    13     3    1
     3     3     4    2
     4     4     5    1
     5     5     6    2
     6     6     7    1
     7     7     8    2
     8     8     9    1
     9     9    10    2
    10    10     1    1
    11     1     2    2
    12     1    14    1
    13    14    15    1
    14    15    16    1
    15    16    17    1
    16    17    18    1
    17    18    19    1
    18    19    20    1
    19    20    21    1
    20    19    22    1
    21    22    23    1
    22    10    11    1
    23    11     3    1
    24    11     7    1
    25    21    16    1
    26    23    16    1
