@<TRIPOS>MOLECULE
*****
 31 35 0 0 0
SMALL
GASTEIGER

@<TRIPOS>ATOM
      1 C          63.5904   90.7775   15.1871 C.2     1  UNL1        0.2505
      2 O          63.4326   91.9227   16.1430 O.2     1  UNL1       -0.2699
      3 N          63.5150   89.3660   15.6888 N.am    1  UNL1       -0.2773
      4 C          63.2881   88.9467   17.1110 C.3     1  UNL1        0.0937
      5 C          63.2861   87.4475   17.1576 C.3     1  UNL1        0.0232
      6 C          63.5118   86.9401   15.7642 C.3     1  UNL1        0.0219
      7 C          63.6533   88.1258   14.8564 C.3     1  UNL1        0.0800
      8 C          61.9728   90.5433   10.2547 C.3     1  UNL1        0.0310
      9 C          63.0147   90.9269   11.2633 C.ar    1  UNL1       -0.0216
     10 C          64.2898   91.5769   10.8143 C.ar    1  UNL1       -0.0026
     11 C          65.3317   91.9604   11.8228 C.ar    1  UNL1        0.0207
     12 C          65.0986   91.6940   13.2804 C.ar    1  UNL1        0.1072
     13 C          63.8235   91.0440   13.7295 C.ar    1  UNL1        0.0726
     14 C          62.7816   90.6604   12.7209 C.ar    1  UNL1        0.0018
     15 N          66.1406   92.0776   14.2890 N.ar    1  UNL1       -0.1477
     16 N          66.2992   93.4277   14.9229 N.ar    1  UNL1       -0.1447
     17 C          67.4635   93.3630   15.8665 C.ar    1  UNL1        0.1446
     18 C          68.0244   91.9727   15.8157 C.ar    1  UNL1        0.1446
     19 N          67.2068   91.1783   14.8408 N.ar    1  UNL1       -0.1447
     20 C          63.8912   88.0795   13.3762 C.3     1  UNL1        0.0462
     21 C          63.2698   86.9924   12.5503 C.ar    1  UNL1       -0.0190
     22 C          62.4866   87.3405   11.3192 C.ar    1  UNL1       -0.0041
     23 C          61.8653   86.2533   10.4934 C.ar    1  UNL1        0.0013
     24 C          62.0271   84.8182   10.8986 C.ar    1  UNL1        0.0209
     25 C          62.8102   84.4702   12.1297 C.ar    1  UNL1        0.1026
     26 C          63.4316   85.5573   12.9555 C.ar    1  UNL1        0.0167
     27 N          62.9720   83.0350   12.5348 N.ar    1  UNL1       -0.1478
     28 N          63.7389   82.5355   13.7232 N.ar    1  UNL1       -0.1447
     29 C          63.6361   81.0392   13.7456 C.ar    1  UNL1        0.1446
     30 C          62.8057   80.6139   12.5710 C.ar    1  UNL1        0.1446
     31 N          62.3952   81.8474   11.8227 N.ar    1  UNL1       -0.1447
@<TRIPOS>BOND
     1     8     9    1
     2     9    10   ar
     3    10    11   ar
     4    11    12   ar
     5    12    15    1
     6    15    16   ar
     7    16    17   ar
     8    17    18   ar
     9    18    19   ar
    10    12    13   ar
    11    13     1    1
    12     1     2    2
    13     1     3   am
    14     3     4    1
    15     4     5    1
    16     5     6    1
    17     6     7    1
    18     7    20    1
    19    20    21    1
    20    21    22   ar
    21    22    23   ar
    22    23    24   ar
    23    24    25   ar
    24    25    27    1
    25    27    28   ar
    26    28    29   ar
    27    29    30   ar
    28    30    31   ar
    29    25    26   ar
    30    13    14   ar
    31    14     9   ar
    32    19    15   ar
    33     7     3    1
    34    26    21   ar
    35    31    27   ar
@<TRIPOS>MOLECULE
*****
 31 35 0 0 0
SMALL
GASTEIGER

@<TRIPOS>ATOM
      1 C          63.6378   90.8393   15.2148 C.2     1  UNL1        0.2505
      2 O          63.4953   91.9947   16.1607 O.2     1  UNL1       -0.2699
      3 N          63.5360   89.4333   15.7274 N.am    1  UNL1       -0.2773
      4 C          63.2955   89.0295   17.1518 C.3     1  UNL1        0.0937
      5 C          63.2677   87.5309   17.2103 C.3     1  UNL1        0.0232
      6 C          63.4910   87.0085   15.8220 C.3     1  UNL1        0.0219
      7 C          63.6568   88.1843   14.9055 C.3     1  UNL1        0.0800
      8 C          62.0439   90.5817   10.2758 C.3     1  UNL1        0.0310
      9 C          63.0851   90.9612   11.2867 C.ar    1  UNL1       -0.0216
     10 C          64.3706   91.5914   10.8390 C.ar    1  UNL1       -0.0026
     11 C          65.4118   91.9709   11.8499 C.ar    1  UNL1        0.0207
     12 C          65.1675   91.7202   13.3084 C.ar    1  UNL1        0.1072
     13 C          63.8821   91.0900   13.7561 C.ar    1  UNL1        0.0726
     14 C          62.8409   90.7105   12.7453 C.ar    1  UNL1        0.0018
     15 N          66.2087   92.0997   14.3193 N.ar    1  UNL1       -0.1477
     16 N          67.2518   91.1885   14.8953 N.ar    1  UNL1       -0.1447
     17 C          68.0774   91.9827   15.8637 C.ar    1  UNL1        0.1446
     18 C          67.5446   93.3847   15.8861 C.ar    1  UNL1        0.1446
     19 N          66.3897   93.4570   14.9317 N.ar    1  UNL1       -0.1447
     20 C          63.9007   88.1220   13.4268 C.3     1  UNL1        0.0462
     21 C          63.2943   87.0178   12.6126 C.ar    1  UNL1       -0.0190
     22 C          63.6213   85.5879   12.9266 C.ar    1  UNL1       -0.0041
     23 C          63.0150   84.4837   12.1124 C.ar    1  UNL1        0.0013
     24 C          62.0816   84.8093   10.9842 C.ar    1  UNL1        0.0209
     25 C          61.7547   86.2392   10.6702 C.ar    1  UNL1        0.1026
     26 C          62.3610   87.3434   11.4844 C.ar    1  UNL1        0.0167
     27 N          60.8213   86.5647    9.5419 N.ar    1  UNL1       -0.1478
     28 N          60.6702   85.7845    8.2697 N.ar    1  UNL1       -0.1447
     29 C          59.6307   86.4651    7.4293 C.ar    1  UNL1        0.1446
     30 C          59.1394   87.6660    8.1821 C.ar    1  UNL1        0.1446
     31 N          59.8753   87.7275    9.4878 N.ar    1  UNL1       -0.1447
@<TRIPOS>BOND
     1     8     9    1
     2     9    10   ar
     3    10    11   ar
     4    11    12   ar
     5    12    15    1
     6    15    16   ar
     7    16    17   ar
     8    17    18   ar
     9    18    19   ar
    10    12    13   ar
    11    13     1    1
    12     1     2    2
    13     1     3   am
    14     3     4    1
    15     4     5    1
    16     5     6    1
    17     6     7    1
    18     7    20    1
    19    20    21    1
    20    21    22   ar
    21    22    23   ar
    22    23    24   ar
    23    24    25   ar
    24    25    27    1
    25    27    28   ar
    26    28    29   ar
    27    29    30   ar
    28    30    31   ar
    29    25    26   ar
    30    13    14   ar
    31    14     9   ar
    32    19    15   ar
    33     7     3    1
    34    26    21   ar
    35    31    27   ar
@<TRIPOS>MOLECULE
*****
 31 35 0 0 0
SMALL
GASTEIGER

@<TRIPOS>ATOM
      1 C          64.1332   83.7370   12.0161 C.2     1  UNL1        0.2505
      2 O          65.0486   82.5495   11.9700 O.2     1  UNL1       -0.2699
      3 N          63.5181   84.2593   10.7517 N.am    1  UNL1       -0.2773
      4 C          63.7244   83.7011    9.3749 C.3     1  UNL1        0.0937
      5 C          62.9225   84.5284    8.4144 C.3     1  UNL1        0.0232
      6 C          62.2207   85.5980    9.1977 C.3     1  UNL1        0.0219
      7 C          62.5888   85.4317   10.6422 C.3     1  UNL1        0.0800
      8 C          64.3960   87.9004   15.1140 C.3     1  UNL1        0.0310
      9 C          63.9644   86.4837   14.8756 C.ar    1  UNL1       -0.0216
     10 C          63.2326   85.7322   15.9478 C.ar    1  UNL1       -0.0026
     11 C          62.8010   84.3155   15.7094 C.ar    1  UNL1        0.0207
     12 C          63.1012   83.6504   14.3989 C.ar    1  UNL1        0.1072
     13 C          63.8330   84.4020   13.3267 C.ar    1  UNL1        0.0726
     14 C          64.2646   85.8187   13.5651 C.ar    1  UNL1        0.0018
     15 N          62.6696   82.2338   14.1605 N.ar    1  UNL1       -0.1477
     16 N          61.2556   81.7561   14.0114 N.ar    1  UNL1       -0.1447
     17 C          61.2883   80.2732   13.7882 C.ar    1  UNL1        0.1446
     18 C          62.7226   79.8343   13.7992 C.ar    1  UNL1        0.1446
     19 N          63.5763   81.0461   14.0294 N.ar    1  UNL1       -0.1447
     20 C          62.1114   86.2875   11.7779 C.3     1  UNL1        0.0462
     21 C          61.8402   87.7459   11.5555 C.ar    1  UNL1       -0.0190
     22 C          60.4709   88.1999   11.1443 C.ar    1  UNL1       -0.0041
     23 C          60.1997   89.6583   10.9219 C.ar    1  UNL1        0.0013
     24 C          61.2978   90.6626   11.1106 C.ar    1  UNL1        0.0209
     25 C          62.6670   90.2086   11.5218 C.ar    1  UNL1        0.1026
     26 C          62.9382   88.7502   11.7442 C.ar    1  UNL1        0.0167
     27 N          63.7650   91.2130   11.7105 N.ar    1  UNL1       -0.1478
     28 N          64.4531   91.9819   10.6219 N.ar    1  UNL1       -0.1447
     29 C          65.4810   92.8690   11.2595 C.ar    1  UNL1        0.1446
     30 C          65.4281   92.6483   12.7423 C.ar    1  UNL1        0.1446
     31 N          64.3675   91.6249   13.0210 N.ar    1  UNL1       -0.1447
@<TRIPOS>BOND
     1     8     9    1
     2     9    10   ar
     3    10    11   ar
     4    11    12   ar
     5    12    15    1
     6    15    16   ar
     7    16    17   ar
     8    17    18   ar
     9    18    19   ar
    10    12    13   ar
    11    13     1    1
    12     1     2    2
    13     1     3   am
    14     3     4    1
    15     4     5    1
    16     5     6    1
    17     6     7    1
    18     7    20    1
    19    20    21    1
    20    21    22   ar
    21    22    23   ar
    22    23    24   ar
    23    24    25   ar
    24    25    27    1
    25    27    28   ar
    26    28    29   ar
    27    29    30   ar
    28    30    31   ar
    29    25    26   ar
    30    13    14   ar
    31    14     9   ar
    32    19    15   ar
    33     7     3    1
    34    26    21   ar
    35    31    27   ar
@<TRIPOS>MOLECULE
*****
 31 35 0 0 0
SMALL
GASTEIGER

@<TRIPOS>ATOM
      1 C          64.5850   92.0846   11.6338 C.2     1  UNL1        0.2505
      2 O          64.6183   93.1477   10.5761 O.2     1  UNL1       -0.2699
      3 N          63.7326   90.8650   11.4447 N.am    1  UNL1       -0.2773
      4 C          62.8644   90.5715   10.2572 C.3     1  UNL1        0.0937
      5 C          62.1939   89.2498   10.4885 C.3     1  UNL1        0.0232
      6 C          62.6476   88.7264   11.8190 C.3     1  UNL1        0.0219
      7 C          63.5986   89.7246   12.4100 C.3     1  UNL1        0.0800
      8 C          64.9398   92.0597   16.8178 C.3     1  UNL1        0.0310
      9 C          65.5816   92.2287   15.4726 C.ar    1  UNL1       -0.0216
     10 C          67.0425   92.5543   15.3741 C.ar    1  UNL1       -0.0026
     11 C          67.6842   92.7233   14.0289 C.ar    1  UNL1        0.0207
     12 C          66.8651   92.5667   12.7822 C.ar    1  UNL1        0.1072
     13 C          65.4042   92.2412   12.8806 C.ar    1  UNL1        0.0726
     14 C          64.7625   92.0721   14.2258 C.ar    1  UNL1        0.0018
     15 N          67.5069   92.7358   11.4369 N.ar    1  UNL1       -0.1477
     16 N          67.4262   93.9562   10.5687 N.ar    1  UNL1       -0.1447
     17 C          68.2115   93.6888    9.3189 C.ar    1  UNL1        0.1446
     18 C          68.7774   92.3030    9.4148 C.ar    1  UNL1        0.1446
     19 N          68.3420   91.7140   10.7238 N.ar    1  UNL1       -0.1447
     20 C          64.2935   89.6037   13.7337 C.3     1  UNL1        0.0462
     21 C          63.9742   88.4570   14.6464 C.ar    1  UNL1       -0.0190
     22 C          63.5550   88.7198   16.0626 C.ar    1  UNL1       -0.0041
     23 C          63.2357   87.5731   16.9752 C.ar    1  UNL1        0.0013
     24 C          63.3355   86.1636   16.4719 C.ar    1  UNL1        0.0209
     25 C          63.7547   85.9008   15.0558 C.ar    1  UNL1        0.1026
     26 C          64.0740   87.0476   14.1431 C.ar    1  UNL1        0.0167
     27 N          63.8545   84.4913   14.5526 N.ar    1  UNL1       -0.1478
     28 N          64.5082   84.0556   13.2747 N.ar    1  UNL1       -0.1447
     29 C          64.3759   82.5651   13.1711 C.ar    1  UNL1        0.1446
     30 C          63.6405   82.0795   14.3849 C.ar    1  UNL1        0.1446
     31 N          63.3182   83.2700   15.2387 N.ar    1  UNL1       -0.1447
@<TRIPOS>BOND
     1     8     9    1
     2     9    10   ar
     3    10    11   ar
     4    11    12   ar
     5    12    15    1
     6    15    16   ar
     7    16    17   ar
     8    17    18   ar
     9    18    19   ar
    10    12    13   ar
    11    13     1    1
    12     1     2    2
    13     1     3   am
    14     3     4    1
    15     4     5    1
    16     5     6    1
    17     6     7    1
    18     7    20    1
    19    20    21    1
    20    21    22   ar
    21    22    23   ar
    22    23    24   ar
    23    24    25   ar
    24    25    27    1
    25    27    28   ar
    26    28    29   ar
    27    29    30   ar
    28    30    31   ar
    29    25    26   ar
    30    13    14   ar
    31    14     9   ar
    32    19    15   ar
    33     7     3    1
    34    26    21   ar
    35    31    27   ar
@<TRIPOS>MOLECULE
*****
 31 35 0 0 0
SMALL
GASTEIGER

@<TRIPOS>ATOM
      1 C          62.8477   88.7884   11.1061 C.2     1  UNL1        0.2505
      2 O          63.0394   90.2338   10.7537 O.2     1  UNL1       -0.2699
      3 N          63.3921   88.2526   12.3970 N.am    1  UNL1       -0.2773
      4 C          64.1454   89.0377   13.4296 C.3     1  UNL1        0.0937
      5 C          64.4976   88.1080   14.5528 C.3     1  UNL1        0.0232
      6 C          63.9619   86.7483   14.2144 C.3     1  UNL1        0.0219
      7 C          63.2787   86.8377   12.8820 C.3     1  UNL1        0.0800
      8 C          62.8903   84.9781    7.5734 C.3     1  UNL1        0.0310
      9 C          62.1329   85.9737    8.4012 C.ar    1  UNL1       -0.0216
     10 C          60.6395   86.0598    8.2904 C.ar    1  UNL1       -0.0026
     11 C          59.8822   87.0554    9.1181 C.ar    1  UNL1        0.0207
     12 C          60.6182   87.9649   10.0567 C.ar    1  UNL1        0.1072
     13 C          62.1116   87.8789   10.1675 C.ar    1  UNL1        0.0726
     14 C          62.8690   86.8833    9.3397 C.ar    1  UNL1        0.0018
     15 N          59.8609   88.9606   10.8844 N.ar    1  UNL1       -0.1477
     16 N          59.6104   90.3956   10.5269 N.ar    1  UNL1       -0.1447
     17 C          58.8157   91.0179   11.6365 C.ar    1  UNL1        0.1446
     18 C          58.5751   89.9674   12.6799 C.ar    1  UNL1        0.1446
     19 N          59.2210   88.6959   12.2150 N.ar    1  UNL1       -0.1447
     20 C          62.6010   85.7102   12.1613 C.3     1  UNL1        0.0462
     21 C          62.6268   84.3268   12.7404 C.ar    1  UNL1       -0.0190
     22 C          62.5944   84.1358   14.2279 C.ar    1  UNL1       -0.0041
     23 C          62.6202   82.7523   14.8071 C.ar    1  UNL1        0.0013
     24 C          62.6783   81.5600   13.8988 C.ar    1  UNL1        0.0209
     25 C          62.7107   81.7511   12.4114 C.ar    1  UNL1        0.1026
     26 C          62.6849   83.1345   11.8322 C.ar    1  UNL1        0.0167
     27 N          62.7688   80.5587   11.5032 N.ar    1  UNL1       -0.1478
     28 N          63.0514   80.5853   10.0303 N.ar    1  UNL1       -0.1447
     29 C          63.0117   79.1734    9.5252 C.ar    1  UNL1        0.1446
     30 C          62.7047   78.2743   10.6859 C.ar    1  UNL1        0.1446
     31 N          62.5545   79.1304   11.9084 N.ar    1  UNL1       -0.1447
@<TRIPOS>BOND
     1     8     9    1
     2     9    10   ar
     3    10    11   ar
     4    11    12   ar
     5    12    15    1
     6    15    16   ar
     7    16    17   ar
     8    17    18   ar
     9    18    19   ar
    10    12    13   ar
    11    13     1    1
    12     1     2    2
    13     1     3   am
    14     3     4    1
    15     4     5    1
    16     5     6    1
    17     6     7    1
    18     7    20    1
    19    20    21    1
    20    21    22   ar
    21    22    23   ar
    22    23    24   ar
    23    24    25   ar
    24    25    27    1
    25    27    28   ar
    26    28    29   ar
    27    29    30   ar
    28    30    31   ar
    29    25    26   ar
    30    13    14   ar
    31    14     9   ar
    32    19    15   ar
    33     7     3    1
    34    26    21   ar
    35    31    27   ar
@<TRIPOS>MOLECULE
*****
 31 35 0 0 0
SMALL
GASTEIGER

@<TRIPOS>ATOM
      1 C          62.8072   89.6419   10.5046 C.2     1  UNL1        0.2505
      2 O          62.8157   90.8931    9.6774 O.2     1  UNL1       -0.2699
      3 N          63.4241   89.6424   11.8719 N.am    1  UNL1       -0.2773
      4 C          64.0828   90.8120   12.5414 C.3     1  UNL1        0.0937
      5 C          64.5564   90.3659   13.8930 C.3     1  UNL1        0.0232
      6 C          64.1904   88.9207   14.0588 C.3     1  UNL1        0.0219
      7 C          63.4906   88.4736   12.8097 C.3     1  UNL1        0.0800
      8 C          63.2162   85.1837    7.8669 C.3     1  UNL1        0.0310
      9 C          62.3863   86.1609    8.6456 C.ar    1  UNL1       -0.0216
     10 C          60.9312   85.8863    8.8842 C.ar    1  UNL1       -0.0026
     11 C          60.1013   86.8635    9.6629 C.ar    1  UNL1        0.0207
     12 C          60.7266   88.1153   10.2031 C.ar    1  UNL1        0.1072
     13 C          62.1818   88.3899    9.9645 C.ar    1  UNL1        0.0726
     14 C          63.0117   87.4127    9.1858 C.ar    1  UNL1        0.0018
     15 N          59.8968   89.0925   10.9818 N.ar    1  UNL1       -0.1477
     16 N          59.2124   88.8230   12.2891 N.ar    1  UNL1       -0.1447
     17 C          58.4983   90.0748   12.7052 C.ar    1  UNL1        0.1446
     18 C          58.7413   91.1179   11.6551 C.ar    1  UNL1        0.1446
     19 N          59.6056   90.5109   10.5900 N.ar    1  UNL1       -0.1447
     20 C          62.9519   87.0989   12.5448 C.3     1  UNL1        0.0462
     21 C          63.4135   85.9394   13.3769 C.ar    1  UNL1       -0.0190
     22 C          64.2753   86.1767   14.5815 C.ar    1  UNL1       -0.0041
     23 C          64.7369   85.0172   15.4136 C.ar    1  UNL1        0.0013
     24 C          64.3366   83.6204   15.0411 C.ar    1  UNL1        0.0209
     25 C          63.4748   83.3831   13.8365 C.ar    1  UNL1        0.1026
     26 C          63.0133   84.5426   13.0044 C.ar    1  UNL1        0.0167
     27 N          63.0746   81.9862   13.4641 N.ar    1  UNL1       -0.1478
     28 N          62.5347   80.9449   14.3991 N.ar    1  UNL1       -0.1447
     29 C          62.2705   79.7006   13.6042 C.ar    1  UNL1        0.1446
     30 C          62.6471   79.9728   12.1780 C.ar    1  UNL1        0.1446
     31 N          63.1441   81.3855   12.0914 N.ar    1  UNL1       -0.1447
@<TRIPOS>BOND
     1     8     9    1
     2     9    10   ar
     3    10    11   ar
     4    11    12   ar
     5    12    15    1
     6    15    16   ar
     7    16    17   ar
     8    17    18   ar
     9    18    19   ar
    10    12    13   ar
    11    13     1    1
    12     1     2    2
    13     1     3   am
    14     3     4    1
    15     4     5    1
    16     5     6    1
    17     6     7    1
    18     7    20    1
    19    20    21    1
    20    21    22   ar
    21    22    23   ar
    22    23    24   ar
    23    24    25   ar
    24    25    27    1
    25    27    28   ar
    26    28    29   ar
    27    29    30   ar
    28    30    31   ar
    29    25    26   ar
    30    13    14   ar
    31    14     9   ar
    32    19    15   ar
    33     7     3    1
    34    26    21   ar
    35    31    27   ar
@<TRIPOS>MOLECULE
*****
 31 35 0 0 0
SMALL
GASTEIGER

@<TRIPOS>ATOM
      1 C          61.7939   86.4103   11.4233 C.2     1  UNL1        0.2505
      2 O          61.4599   84.9967   11.0489 O.2     1  UNL1       -0.2699
      3 N          62.8091   86.6828   12.4934 N.am    1  UNL1       -0.2773
      4 C          63.5679   85.6498   13.2724 C.3     1  UNL1        0.0937
      5 C          64.4715   86.3648   14.2328 C.3     1  UNL1        0.0232
      6 C          64.2711   87.8397   14.0474 C.3     1  UNL1        0.0219
      7 C          63.2436   88.0363   12.9723 C.3     1  UNL1        0.0800
      8 C          59.2395   90.9302   11.6354 C.3     1  UNL1        0.0310
      9 C          59.8355   89.8113   10.8337 C.ar    1  UNL1       -0.0216
     10 C          59.7503   89.8334    9.3363 C.ar    1  UNL1       -0.0026
     11 C          60.3463   88.7145    8.5346 C.ar    1  UNL1        0.0207
     12 C          61.0275   87.5735    9.2302 C.ar    1  UNL1        0.1072
     13 C          61.1127   87.5513   10.7276 C.ar    1  UNL1        0.0726
     14 C          60.5167   88.6703   11.5293 C.ar    1  UNL1        0.0018
     15 N          61.6235   86.4545    8.4285 N.ar    1  UNL1       -0.1477
     16 N          60.9309   85.6776    7.3483 N.ar    1  UNL1       -0.1447
     17 C          61.8961   84.6590    6.8184 C.ar    1  UNL1        0.1446
     18 C          63.1853   84.8064    7.5710 C.ar    1  UNL1        0.1446
     19 N          63.0167   85.9161    8.5661 N.ar    1  UNL1       -0.1447
     20 C          62.7393   89.3548   12.4653 C.3     1  UNL1        0.0462
     21 C          63.7011   90.4764   12.2066 C.ar    1  UNL1       -0.0190
     22 C          63.6728   91.2008   10.8933 C.ar    1  UNL1       -0.0041
     23 C          64.6346   92.3224   10.6346 C.ar    1  UNL1        0.0013
     24 C          65.6246   92.7196   11.6891 C.ar    1  UNL1        0.0209
     25 C          65.6529   91.9952   13.0023 C.ar    1  UNL1        0.1026
     26 C          64.6911   90.8736   13.2610 C.ar    1  UNL1        0.0167
     27 N          66.6431   92.3925   14.0568 N.ar    1  UNL1       -0.1478
     28 N          66.3204   92.7653   15.4734 N.ar    1  UNL1       -0.1447
     29 C          67.6075   93.0899   16.1719 C.ar    1  UNL1        0.1446
     30 C          68.7257   92.9178   15.1869 C.ar    1  UNL1        0.1446
     31 N          68.1296   92.4868   13.8797 N.ar    1  UNL1       -0.1447
@<TRIPOS>BOND
     1     8     9    1
     2     9    10   ar
     3    10    11   ar
     4    11    12   ar
     5    12    15    1
     6    15    16   ar
     7    16    17   ar
     8    17    18   ar
     9    18    19   ar
    10    12    13   ar
    11    13     1    1
    12     1     2    2
    13     1     3   am
    14     3     4    1
    15     4     5    1
    16     5     6    1
    17     6     7    1
    18     7    20    1
    19    20    21    1
    20    21    22   ar
    21    22    23   ar
    22    23    24   ar
    23    24    25   ar
    24    25    27    1
    25    27    28   ar
    26    28    29   ar
    27    29    30   ar
    28    30    31   ar
    29    25    26   ar
    30    13    14   ar
    31    14     9   ar
    32    19    15   ar
    33     7     3    1
    34    26    21   ar
    35    31    27   ar
@<TRIPOS>MOLECULE
*****
 31 35 0 0 0
SMALL
GASTEIGER

@<TRIPOS>ATOM
      1 C          64.5282   91.5687   15.0731 C.2     1  UNL1        0.2505
      2 O          64.7755   92.6485   16.0845 O.2     1  UNL1       -0.2699
      3 N          63.9471   90.2551   15.5053 N.am    1  UNL1       -0.2773
      4 C          63.5651   89.8782   16.9060 C.3     1  UNL1        0.0937
      5 C          63.0279   88.4779   16.8790 C.3     1  UNL1        0.0232
      6 C          63.0778   87.9895   15.4616 C.3     1  UNL1        0.0219
      7 C          63.6459   89.0878   14.6126 C.3     1  UNL1        0.0800
      8 C          63.1393   91.5089   10.0663 C.3     1  UNL1        0.0310
      9 C          64.1675   91.7726   11.1261 C.ar    1  UNL1       -0.0216
     10 C          65.5296   92.2701   10.7424 C.ar    1  UNL1       -0.0026
     11 C          66.5578   92.5338   11.8022 C.ar    1  UNL1        0.0207
     12 C          66.2241   92.3000   13.2457 C.ar    1  UNL1        0.1072
     13 C          64.8620   91.8025   13.6295 C.ar    1  UNL1        0.0726
     14 C          63.8338   91.5388   12.5697 C.ar    1  UNL1        0.0018
     15 N          67.2523   92.5637   14.3055 N.ar    1  UNL1       -0.1477
     16 N          67.7352   93.9127   14.7492 N.ar    1  UNL1       -0.1447
     17 C          68.7596   93.7075   15.8256 C.ar    1  UNL1        0.1446
     18 C          68.9097   92.2316   16.0471 C.ar    1  UNL1        0.1446
     19 N          67.9782   91.5247   15.1077 N.ar    1  UNL1       -0.1447
     20 C          63.8730   89.0292   13.1311 C.3     1  UNL1        0.0462
     21 C          62.7154   88.8089   12.2031 C.ar    1  UNL1       -0.0190
     22 C          61.4437   89.5813   12.3939 C.ar    1  UNL1       -0.0041
     23 C          60.2860   89.3610   11.4659 C.ar    1  UNL1        0.0013
     24 C          60.4000   88.3684   10.3471 C.ar    1  UNL1        0.0209
     25 C          61.6716   87.5961   10.1562 C.ar    1  UNL1        0.1026
     26 C          62.8293   87.8164   11.0843 C.ar    1  UNL1        0.0167
     27 N          61.7856   86.6035    9.0373 N.ar    1  UNL1       -0.1478
     28 N          60.7186   86.2799    8.0340 N.ar    1  UNL1       -0.1447
     29 C          61.2600   85.2367    7.1019 C.ar    1  UNL1        0.1446
     30 C          62.6615   84.9157    7.5292 C.ar    1  UNL1        0.1446
     31 N          62.9864   85.7605    8.7254 N.ar    1  UNL1       -0.1447
@<TRIPOS>BOND
     1     8     9    1
     2     9    10   ar
     3    10    11   ar
     4    11    12   ar
     5    12    15    1
     6    15    16   ar
     7    16    17   ar
     8    17    18   ar
     9    18    19   ar
    10    12    13   ar
    11    13     1    1
    12     1     2    2
    13     1     3   am
    14     3     4    1
    15     4     5    1
    16     5     6    1
    17     6     7    1
    18     7    20    1
    19    20    21    1
    20    21    22   ar
    21    22    23   ar
    22    23    24   ar
    23    24    25   ar
    24    25    27    1
    25    27    28   ar
    26    28    29   ar
    27    29    30   ar
    28    30    31   ar
    29    25    26   ar
    30    13    14   ar
    31    14     9   ar
    32    19    15   ar
    33     7     3    1
    34    26    21   ar
    35    31    27   ar
@<TRIPOS>MOLECULE
*****
 31 35 0 0 0
SMALL
GASTEIGER

@<TRIPOS>ATOM
      1 C          63.0979   96.1912   -2.4836 C.2     1  UNL1        0.2505
      2 O          63.5339   96.8560   -3.7556 O.2     1  UNL1       -0.2699
      3 N          63.9959   96.2087   -1.2822 N.am    1  UNL1       -0.2773
      4 C          65.3504   96.8482   -1.2032 C.3     1  UNL1        0.0937
      5 C          65.8888   96.6245    0.1788 C.3     1  UNL1        0.0232
      6 C          64.8669   95.8467    0.9541 C.3     1  UNL1        0.0219
      7 C          63.6971   95.5898    0.0511 C.3     1  UNL1        0.0800
      8 C          58.1908   96.0686   -0.7789 C.3     1  UNL1        0.0310
      9 C          59.3104   95.4476   -1.5606 C.ar    1  UNL1       -0.0216
     10 C          59.0960   94.1444   -2.2716 C.ar    1  UNL1       -0.0026
     11 C          60.2155   93.5234   -3.0533 C.ar    1  UNL1        0.0207
     12 C          61.5495   94.2056   -3.1239 C.ar    1  UNL1        0.1072
     13 C          61.7639   95.5088   -2.4129 C.ar    1  UNL1        0.0726
     14 C          60.6444   96.1298   -1.6312 C.ar    1  UNL1        0.0018
     15 N          62.6690   93.5846   -3.9056 N.ar    1  UNL1       -0.1477
     16 N          62.8538   93.6594   -5.3923 N.ar    1  UNL1       -0.1447
     17 C          64.0994   92.9009   -5.7433 C.ar    1  UNL1        0.1446
     18 C          64.6843   92.3572   -4.4736 C.ar    1  UNL1        0.1446
     19 N          63.8003   92.7798   -3.3378 N.ar    1  UNL1       -0.1447
     20 C          62.4477   94.8447    0.4171 C.3     1  UNL1        0.0462
     21 C          62.5126   93.7027    1.3875 C.ar    1  UNL1       -0.0190
     22 C          63.7827   92.9192    1.5397 C.ar    1  UNL1       -0.0041
     23 C          63.8476   91.7772    2.5101 C.ar    1  UNL1        0.0013
     24 C          62.6426   91.4188    3.3282 C.ar    1  UNL1        0.0209
     25 C          61.3726   92.2023    3.1760 C.ar    1  UNL1        0.1026
     26 C          61.3077   93.3443    2.2056 C.ar    1  UNL1        0.0167
     27 N          60.1675   91.8438    3.9941 N.ar    1  UNL1       -0.1478
     28 N          60.1349   90.8727    5.1369 N.ar    1  UNL1       -0.1447
     29 C          58.7308   90.8221    5.6622 C.ar    1  UNL1        0.1446
     30 C          57.8957   91.7619    4.8441 C.ar    1  UNL1        0.1446
     31 N          58.7836   92.3934    3.8132 N.ar    1  UNL1       -0.1447
@<TRIPOS>BOND
     1     8     9    1
     2     9    10   ar
     3    10    11   ar
     4    11    12   ar
     5    12    15    1
     6    15    16   ar
     7    16    17   ar
     8    17    18   ar
     9    18    19   ar
    10    12    13   ar
    11    13     1    1
    12     1     2    2
    13     1     3   am
    14     3     4    1
    15     4     5    1
    16     5     6    1
    17     6     7    1
    18     7    20    1
    19    20    21    1
    20    21    22   ar
    21    22    23   ar
    22    23    24   ar
    23    24    25   ar
    24    25    27    1
    25    27    28   ar
    26    28    29   ar
    27    29    30   ar
    28    30    31   ar
    29    25    26   ar
    30    13    14   ar
    31    14     9   ar
    32    19    15   ar
    33     7     3    1
    34    26    21   ar
    35    31    27   ar
