@<TRIPOS>MOLECULE
*****
 28 30 0 0 0
SMALL
GASTEIGER

@<TRIPOS>ATOM
      1 C          61.8378   86.7210   10.8074 C.ar    1  UNL1        0.0900
      2 C          60.6961   86.5687    9.8466 C.ar    1  UNL1        0.0372
      3 C          60.0248   87.7848    9.2806 C.ar    1  UNL1        0.1405
      4 F          58.8831   87.6325    8.3197 F       1  UNL1       -0.2042
      5 C          60.4953   89.1534    9.6754 C.ar    1  UNL1        0.0328
      6 C          61.6370   89.3057   10.6363 C.ar    1  UNL1        0.0400
      7 C          62.3148   90.5166   11.2057 C.ar    1  UNL1        0.0406
      8 C          63.4050   90.0488   12.1237 C.ar    1  UNL1        0.1453
      9 O          63.4009   88.5488   12.1216 O.2     1  UNL1       -0.4533
     10 C          62.3082   88.0895   11.2023 C.ar    1  UNL1        0.1497
     11 C          64.3358   90.9268   12.9065 C.ar    1  UNL1        0.0346
     12 C          65.0502   92.0569   12.2264 C.ar    1  UNL1        0.0039
     13 C          65.9810   92.9349   13.0093 C.ar    1  UNL1        0.0115
     14 C          66.1974   92.6828   14.4720 C.ar    1  UNL1        0.0577
     15 CL         67.1282   93.5609   15.2547 Cl      1  UNL1       -0.0822
     16 C          65.4830   91.5527   15.1520 C.ar    1  UNL1        0.0115
     17 C          64.5522   90.6747   14.3692 C.ar    1  UNL1        0.0039
     18 N          62.6193   85.3322   12.8594 N.am    1  UNL1       -0.2994
     19 C          62.5090   85.5049   11.3735 C.2     1  UNL1        0.2491
     20 O          63.0700   84.4613   10.4535 O.2     1  UNL1       -0.2700
     21 H          62.2511   86.0171   13.4632 H       1  UNL1        0.1500
     22 C          63.2905   84.1160   13.4253 C.3     1  UNL1        0.0889
     23 C          62.1241   83.2743   12.9998 C.3     1  UNL1        0.0254
     24 C          63.9617   82.8997   13.9912 C.2     1  UNL1        0.0663
     25 O          64.3435   81.7650   13.0876 O.co2   1  UNL1       -0.5476
     26 O          64.2510   82.8183   15.4608 O.co2   1  UNL1       -0.5476
     27 C          64.2292   86.2031   14.6553 C.3     1  UNL1        0.0021
     28 C          64.4569   84.9576   13.8508 C.3     1  UNL1        0.0234
@<TRIPOS>UNITY_ATOM_ATTR
25 1
charge -1
@<TRIPOS>BOND
     1    27    28    1
     2    28    22    1
     3    22    23    1
     4    22    18    1
     5    18    19   am
     6    19    20    2
     7    19     1    1
     8     1     2   ar
     9     2     3   ar
    10     3     4    1
    11     3     5   ar
    12     5     6   ar
    13     6     7   ar
    14     7     8   ar
    15     8    11    1
    16    11    12   ar
    17    12    13   ar
    18    13    14   ar
    19    14    15    1
    20    14    16   ar
    21    16    17   ar
    22     8     9   ar
    23     9    10   ar
    24    22    24    1
    25    24    25   ar
    26    24    26   ar
    27    10     1   ar
    28    10     6   ar
    29    17    11   ar
    30    18    21    1
@<TRIPOS>MOLECULE
*****
 28 30 0 0 0
SMALL
GASTEIGER

@<TRIPOS>ATOM
      1 C          63.2010   89.4566   12.1735 C.ar    1  UNL1        0.0900
      2 C          63.7501   90.7226   12.7615 C.ar    1  UNL1        0.0372
      3 C          64.5470   90.6757   14.0314 C.ar    1  UNL1        0.1405
      4 F          65.0961   91.9418   14.6194 F       1  UNL1       -0.2042
      5 C          64.7949   89.3629   14.7134 C.ar    1  UNL1        0.0328
      6 C          64.2458   88.0969   14.1253 C.ar    1  UNL1        0.0400
      7 C          64.3266   86.6664   14.5694 C.ar    1  UNL1        0.0406
      8 C          63.5797   85.8292   13.5738 C.ar    1  UNL1        0.1453
      9 O          63.0372   86.7422   12.5145 O.2     1  UNL1       -0.4533
     10 C          63.4488   88.1438   12.8554 C.ar    1  UNL1        0.1497
     11 C          63.4057   84.3403   13.6280 C.ar    1  UNL1        0.0346
     12 C          62.3506   83.7400   14.5092 C.ar    1  UNL1        0.0039
     13 C          62.1768   82.2511   14.5633 C.ar    1  UNL1        0.0115
     14 C          63.0579   81.3625   13.7363 C.ar    1  UNL1        0.0577
     15 CL         62.8840   79.8736   13.7905 Cl      1  UNL1       -0.0822
     16 C          64.1130   81.9627   12.8552 C.ar    1  UNL1        0.0115
     17 C          64.2869   83.4517   12.8011 C.ar    1  UNL1        0.0039
     18 N          61.3007   88.5137   10.6735 N.am    1  UNL1       -0.2994
     19 C          62.4041   89.5035   10.9036 C.2     1  UNL1        0.2491
     20 O          62.7106   90.5402    9.8636 O.2     1  UNL1       -0.2700
     21 H          61.0996   87.8333   11.3561 H       1  UNL1        0.1500
     22 C          60.5038   88.5607    9.4036 C.3     1  UNL1        0.0889
     23 C          59.8214   89.8093    9.8780 C.3     1  UNL1        0.0254
     24 C          59.7069   88.6077    8.1336 C.2     1  UNL1        0.0663
     25 O          59.9108   89.7317    7.1614 O.co2   1  UNL1       -0.5476
     26 O          58.7062   87.5308    7.8360 O.co2   1  UNL1       -0.5476
     27 C          61.2103   86.0925    9.8021 C.3     1  UNL1        0.0021
     28 C          61.1862   87.3121    8.9291 C.3     1  UNL1        0.0234
@<TRIPOS>UNITY_ATOM_ATTR
25 1
charge -1
@<TRIPOS>BOND
     1    27    28    1
     2    28    22    1
     3    22    23    1
     4    22    18    1
     5    18    19   am
     6    19    20    2
     7    19     1    1
     8     1     2   ar
     9     2     3   ar
    10     3     4    1
    11     3     5   ar
    12     5     6   ar
    13     6     7   ar
    14     7     8   ar
    15     8    11    1
    16    11    12   ar
    17    12    13   ar
    18    13    14   ar
    19    14    15    1
    20    14    16   ar
    21    16    17   ar
    22     8     9   ar
    23     9    10   ar
    24    22    24    1
    25    24    25   ar
    26    24    26   ar
    27    10     1   ar
    28    10     6   ar
    29    17    11   ar
    30    18    21    1
@<TRIPOS>MOLECULE
*****
 28 30 0 0 0
SMALL
GASTEIGER

@<TRIPOS>ATOM
      1 C          63.0840   88.8542   12.1471 C.ar    1  UNL1        0.0900
      2 C          63.6678   90.0627   12.8168 C.ar    1  UNL1        0.0372
      3 C          64.4294   89.9143   14.1004 C.ar    1  UNL1        0.1405
      4 F          65.0132   91.1230   14.7702 F       1  UNL1       -0.2042
      5 C          64.6073   88.5573   14.7145 C.ar    1  UNL1        0.0328
      6 C          64.0236   87.3488   14.0447 C.ar    1  UNL1        0.0400
      7 C          64.0361   85.8942   14.4108 C.ar    1  UNL1        0.0406
      8 C          63.2821   85.1436   13.3534 C.ar    1  UNL1        0.1453
      9 O          62.8037   86.1343   12.3337 O.2     1  UNL1       -0.4533
     10 C          63.2619   87.4972   12.7610 C.ar    1  UNL1        0.1497
     11 C          63.0478   83.6624   13.3212 C.ar    1  UNL1        0.0346
     12 C          63.4760   82.8611   12.1276 C.ar    1  UNL1        0.0039
     13 C          63.2416   81.3798   12.0955 C.ar    1  UNL1        0.0115
     14 C          62.5790   80.6999   13.2568 C.ar    1  UNL1        0.0577
     15 CL         62.3447   79.2187   13.2246 Cl      1  UNL1       -0.0822
     16 C          62.1508   81.5012   14.4503 C.ar    1  UNL1        0.0115
     17 C          62.3852   82.9825   14.4825 C.ar    1  UNL1        0.0039
     18 N          61.1225   88.1420   10.5994 N.am    1  UNL1       -0.2994
     19 C          62.3223   89.0026   10.8634 C.2     1  UNL1        0.2491
     20 O          62.7605   90.0117    9.8437 O.2     1  UNL1       -0.2700
     21 H          60.8349   87.4796   11.2686 H       1  UNL1        0.1500
     22 C          60.3609   88.2904    9.3157 C.3     1  UNL1        0.0889
     23 C          60.0899   89.7290    9.6430 C.3     1  UNL1        0.0254
     24 C          59.5993   88.4390    8.0320 C.2     1  UNL1        0.0663
     25 O          59.8258   89.6383    7.1600 O.co2   1  UNL1       -0.5476
     26 O          58.6111   87.3883    7.6203 O.co2   1  UNL1       -0.5476
     27 C          62.0412   86.3834    8.7772 C.3     1  UNL1        0.0021
     28 C          60.6319   86.8520    8.9884 C.3     1  UNL1        0.0234
@<TRIPOS>UNITY_ATOM_ATTR
25 1
charge -1
@<TRIPOS>BOND
     1    27    28    1
     2    28    22    1
     3    22    23    1
     4    22    18    1
     5    18    19   am
     6    19    20    2
     7    19     1    1
     8     1     2   ar
     9     2     3   ar
    10     3     4    1
    11     3     5   ar
    12     5     6   ar
    13     6     7   ar
    14     7     8   ar
    15     8    11    1
    16    11    12   ar
    17    12    13   ar
    18    13    14   ar
    19    14    15    1
    20    14    16   ar
    21    16    17   ar
    22     8     9   ar
    23     9    10   ar
    24    22    24    1
    25    24    25   ar
    26    24    26   ar
    27    10     1   ar
    28    10     6   ar
    29    17    11   ar
    30    18    21    1
@<TRIPOS>MOLECULE
*****
 28 30 0 0 0
SMALL
GASTEIGER

@<TRIPOS>ATOM
      1 C          62.2617   86.8907   11.5333 C.ar    1  UNL1        0.0900
      2 C          61.2046   86.6395   10.4992 C.ar    1  UNL1        0.0372
      3 C          60.6800   87.7752    9.6717 C.ar    1  UNL1        0.1405
      4 F          59.6229   87.5240    8.6375 F       1  UNL1       -0.2042
      5 C          61.2124   89.1623    9.8784 C.ar    1  UNL1        0.0328
      6 C          62.2694   89.4135   10.9126 C.ar    1  UNL1        0.0400
      7 C          62.9800   90.6640   11.3382 C.ar    1  UNL1        0.0406
      8 C          63.9439   90.3011   12.4287 C.ar    1  UNL1        0.1453
      9 O          63.8290   88.8263   12.6771 O.2     1  UNL1       -0.4533
     10 C          62.7941   88.2777   11.7400 C.ar    1  UNL1        0.1497
     11 C          64.8616   91.2469   13.1452 C.ar    1  UNL1        0.0346
     12 C          65.2341   90.9915   14.5755 C.ar    1  UNL1        0.0039
     13 C          66.1518   91.9374   15.2919 C.ar    1  UNL1        0.0115
     14 C          66.6970   93.1387   14.5780 C.ar    1  UNL1        0.0577
     15 CL         67.6146   94.0845   15.2944 Cl      1  UNL1       -0.0822
     16 C          66.3244   93.3941   13.1476 C.ar    1  UNL1        0.0115
     17 C          65.4067   92.4482   12.4312 C.ar    1  UNL1        0.0039
     18 N          62.5711   84.3393   11.9138 N.am    1  UNL1       -0.2994
     19 C          62.7863   85.7549   12.3608 C.2     1  UNL1        0.2491
     20 O          63.5263   86.0347   13.6353 O.2     1  UNL1       -0.2700
     21 H          62.0854   84.1556   11.0773 H       1  UNL1        0.1500
     22 C          63.0958   83.2035   12.7413 C.3     1  UNL1        0.0889
     23 C          61.9652   83.3871   13.7099 C.3     1  UNL1        0.0254
     24 C          63.6204   82.0678   13.5689 C.2     1  UNL1        0.0663
     25 O          64.1230   82.3224   14.9591 O.co2   1  UNL1       -0.5476
     26 O          63.6423   80.6775   13.0063 O.co2   1  UNL1       -0.5476
     27 C          63.9593   83.0347   10.2968 C.3     1  UNL1        0.0021
     28 C          64.2263   83.0200   11.7728 C.3     1  UNL1        0.0234
@<TRIPOS>UNITY_ATOM_ATTR
25 1
charge -1
@<TRIPOS>BOND
     1    27    28    1
     2    28    22    1
     3    22    23    1
     4    22    18    1
     5    18    19   am
     6    19    20    2
     7    19     1    1
     8     1     2   ar
     9     2     3   ar
    10     3     4    1
    11     3     5   ar
    12     5     6   ar
    13     6     7   ar
    14     7     8   ar
    15     8    11    1
    16    11    12   ar
    17    12    13   ar
    18    13    14   ar
    19    14    15    1
    20    14    16   ar
    21    16    17   ar
    22     8     9   ar
    23     9    10   ar
    24    22    24    1
    25    24    25   ar
    26    24    26   ar
    27    10     1   ar
    28    10     6   ar
    29    17    11   ar
    30    18    21    1
@<TRIPOS>MOLECULE
*****
 28 30 0 0 0
SMALL
GASTEIGER

@<TRIPOS>ATOM
      1 C          63.8343   85.8270   13.7778 C.ar    1  UNL1        0.0900
      2 C          64.2734   84.5158   14.3593 C.ar    1  UNL1        0.0372
      3 C          63.8785   83.2307   13.6943 C.ar    1  UNL1        0.1405
      4 F          64.3177   81.9195   14.2759 F       1  UNL1       -0.2042
      5 C          63.0445   83.2565   12.4478 C.ar    1  UNL1        0.0328
      6 C          62.6054   84.5676   11.8663 C.ar    1  UNL1        0.0400
      7 C          61.7843   84.9045   10.6570 C.ar    1  UNL1        0.0406
      8 C          61.6718   86.3980   10.5747 C.ar    1  UNL1        0.1453
      9 O          62.4232   86.9841   11.7330 O.2     1  UNL1       -0.4533
     10 C          63.0003   85.8528   12.5313 C.ar    1  UNL1        0.1497
     11 C          60.9367   87.1699    9.5193 C.ar    1  UNL1        0.0346
     12 C          60.9968   88.6687    9.5077 C.ar    1  UNL1        0.0039
     13 C          60.2617   89.4405    8.4522 C.ar    1  UNL1        0.0115
     14 C          59.4666   88.7137    7.4084 C.ar    1  UNL1        0.0577
     15 CL         58.7316   89.4856    6.3530 Cl      1  UNL1       -0.0822
     16 C          59.4066   87.2149    7.4200 C.ar    1  UNL1        0.0115
     17 C          60.1417   86.4431    8.4754 C.ar    1  UNL1        0.0039
     18 N          63.3837   88.3386   14.2664 N.am    1  UNL1       -0.2994
     19 C          64.2291   87.1122   14.4428 C.2     1  UNL1        0.2491
     20 O          65.4696   87.1710   15.2843 O.2     1  UNL1       -0.2700
     21 H          62.5696   88.3000   13.7141 H       1  UNL1        0.1500
     22 C          63.7786   89.6238   14.9314 C.3     1  UNL1        0.0889
     23 C          63.2118   89.1268   16.2283 C.3     1  UNL1        0.0254
     24 C          64.1735   90.9090   15.5966 C.2     1  UNL1        0.0663
     25 O          65.2564   91.7595   15.0017 O.co2   1  UNL1       -0.5476
     26 O          63.4855   91.3435   16.8566 O.co2   1  UNL1       -0.5476
     27 C          63.4635   90.2392   12.4270 C.3     1  UNL1        0.0021
     28 C          64.3454   90.1207   13.6347 C.3     1  UNL1        0.0234
@<TRIPOS>UNITY_ATOM_ATTR
25 1
charge -1
@<TRIPOS>BOND
     1    27    28    1
     2    28    22    1
     3    22    23    1
     4    22    18    1
     5    18    19   am
     6    19    20    2
     7    19     1    1
     8     1     2   ar
     9     2     3   ar
    10     3     4    1
    11     3     5   ar
    12     5     6   ar
    13     6     7   ar
    14     7     8   ar
    15     8    11    1
    16    11    12   ar
    17    12    13   ar
    18    13    14   ar
    19    14    15    1
    20    14    16   ar
    21    16    17   ar
    22     8     9   ar
    23     9    10   ar
    24    22    24    1
    25    24    25   ar
    26    24    26   ar
    27    10     1   ar
    28    10     6   ar
    29    17    11   ar
    30    18    21    1
@<TRIPOS>MOLECULE
*****
 28 30 0 0 0
SMALL
GASTEIGER

@<TRIPOS>ATOM
      1 C          61.4066   89.0893   10.4451 C.ar    1  UNL1        0.0900
      2 C          60.6840   89.6785    9.2701 C.ar    1  UNL1        0.0372
      3 C          60.1327   88.7814    8.2019 C.ar    1  UNL1        0.1405
      4 F          59.4101   89.3706    7.0268 F       1  UNL1       -0.2042
      5 C          60.3041   87.2949    8.3085 C.ar    1  UNL1        0.0328
      6 C          61.0267   86.7058    9.4835 C.ar    1  UNL1        0.0400
      7 C          61.3472   85.2888    9.8572 C.ar    1  UNL1        0.0406
      8 C          62.0965   85.3103   11.1564 C.ar    1  UNL1        0.1453
      9 O          62.2392   86.7405   11.5857 O.2     1  UNL1       -0.4533
     10 C          61.5780   87.6029   10.5518 C.ar    1  UNL1        0.1497
     11 C          62.6127   84.1120   11.8964 C.ar    1  UNL1        0.0346
     12 C          63.0423   82.8905   11.1391 C.ar    1  UNL1        0.0039
     13 C          63.5584   81.6922   11.8793 C.ar    1  UNL1        0.0115
     14 C          63.6450   81.7154   13.3766 C.ar    1  UNL1        0.0577
     15 CL         64.1611   80.5171   14.1166 Cl      1  UNL1       -0.0822
     16 C          63.2154   82.9368   14.1339 C.ar    1  UNL1        0.0115
     17 C          62.6992   84.1351   13.3937 C.ar    1  UNL1        0.0039
     18 N          63.3142   89.7156   12.0940 N.am    1  UNL1       -0.2994
     19 C          61.9579   89.9864   11.5134 C.2     1  UNL1        0.2491
     20 O          61.1528   91.1545   12.0010 O.2     1  UNL1       -0.2700
     21 H          63.8426   88.9491   11.7740 H       1  UNL1        0.1500
     22 C          63.8654   90.6129   13.1623 C.3     1  UNL1        0.0889
     23 C          64.2568   91.6158   12.1178 C.3     1  UNL1        0.0254
     24 C          64.4166   91.5102   14.2305 C.2     1  UNL1        0.0663
     25 O          65.5907   92.3954   13.9342 O.co2   1  UNL1       -0.5476
     26 O          63.7937   91.5221   15.5950 O.co2   1  UNL1       -0.5476
     27 C          64.2705   88.3496   14.3721 C.3     1  UNL1        0.0021
     28 C          63.4740   89.6100   14.2067 C.3     1  UNL1        0.0234
@<TRIPOS>UNITY_ATOM_ATTR
25 1
charge -1
@<TRIPOS>BOND
     1    27    28    1
     2    28    22    1
     3    22    23    1
     4    22    18    1
     5    18    19   am
     6    19    20    2
     7    19     1    1
     8     1     2   ar
     9     2     3   ar
    10     3     4    1
    11     3     5   ar
    12     5     6   ar
    13     6     7   ar
    14     7     8   ar
    15     8    11    1
    16    11    12   ar
    17    12    13   ar
    18    13    14   ar
    19    14    15    1
    20    14    16   ar
    21    16    17   ar
    22     8     9   ar
    23     9    10   ar
    24    22    24    1
    25    24    25   ar
    26    24    26   ar
    27    10     1   ar
    28    10     6   ar
    29    17    11   ar
    30    18    21    1
@<TRIPOS>MOLECULE
*****
 28 30 0 0 0
SMALL
GASTEIGER

@<TRIPOS>ATOM
      1 C          62.1512   89.2844   11.4462 C.ar    1  UNL1        0.0900
      2 C          61.4765   90.1032   10.3859 C.ar    1  UNL1        0.0372
      3 C          60.7453   89.4243    9.2659 C.ar    1  UNL1        0.1405
      4 F          60.0707   90.2432    8.2055 F       1  UNL1       -0.2042
      5 C          60.6887   87.9265    9.2063 C.ar    1  UNL1        0.0328
      6 C          61.3633   87.1077   10.2666 C.ar    1  UNL1        0.0400
      7 C          61.4766   85.6259   10.4700 C.ar    1  UNL1        0.0406
      8 C          62.2779   85.3890   11.7157 C.ar    1  UNL1        0.1453
      9 O          62.6598   86.7244   12.2822 O.2     1  UNL1       -0.4533
     10 C          62.0945   87.7867   11.3866 C.ar    1  UNL1        0.1497
     11 C          62.6347   84.0516   12.2935 C.ar    1  UNL1        0.0346
     12 C          62.7088   83.8728   13.7810 C.ar    1  UNL1        0.0039
     13 C          63.0656   82.5352   14.3587 C.ar    1  UNL1        0.0115
     14 C          63.3484   81.3765   13.4491 C.ar    1  UNL1        0.0577
     15 CL         63.7052   80.0390   14.0269 Cl      1  UNL1       -0.0822
     16 C          63.2743   81.5553   11.9616 C.ar    1  UNL1        0.0115
     17 C          62.9175   82.8929   11.3839 C.ar    1  UNL1        0.0039
     18 N          64.2381   90.5581   12.3250 N.am    1  UNL1       -0.2994
     19 C          62.8824   89.9633   12.5662 C.2     1  UNL1        0.2491
     20 O          62.2578   90.0475   13.9275 O.2     1  UNL1       -0.2700
     21 H          64.6481   90.5029   11.4316 H       1  UNL1        0.1500
     22 C          64.9693   91.2370   13.4451 C.3     1  UNL1        0.0889
     23 C          64.8216   90.0051   14.2881 C.3     1  UNL1        0.0254
     24 C          65.7005   91.9158   14.5652 C.2     1  UNL1        0.0663
     25 O          64.9685   92.2924   15.8191 O.co2   1  UNL1       -0.5476
     26 O          67.1636   92.2180   14.4313 O.co2   1  UNL1       -0.5476
     27 C          65.2630   92.3464   11.1142 C.3     1  UNL1        0.0021
     28 C          65.1170   92.4688   12.6021 C.3     1  UNL1        0.0234
@<TRIPOS>UNITY_ATOM_ATTR
25 1
charge -1
@<TRIPOS>BOND
     1    27    28    1
     2    28    22    1
     3    22    23    1
     4    22    18    1
     5    18    19   am
     6    19    20    2
     7    19     1    1
     8     1     2   ar
     9     2     3   ar
    10     3     4    1
    11     3     5   ar
    12     5     6   ar
    13     6     7   ar
    14     7     8   ar
    15     8    11    1
    16    11    12   ar
    17    12    13   ar
    18    13    14   ar
    19    14    15    1
    20    14    16   ar
    21    16    17   ar
    22     8     9   ar
    23     9    10   ar
    24    22    24    1
    25    24    25   ar
    26    24    26   ar
    27    10     1   ar
    28    10     6   ar
    29    17    11   ar
    30    18    21    1
@<TRIPOS>MOLECULE
*****
 28 30 0 0 0
SMALL
GASTEIGER

@<TRIPOS>ATOM
      1 C          62.7800   85.0607   11.2443 C.ar    1  UNL1        0.0900
      2 C          62.9580   83.5717   11.2072 C.ar    1  UNL1        0.0372
      3 C          63.6129   82.8658   12.3572 C.ar    1  UNL1        0.1405
      4 F          63.7909   81.3767   12.3200 F       1  UNL1       -0.2042
      5 C          64.0899   83.6487   13.5445 C.ar    1  UNL1        0.0328
      6 C          63.9119   85.1376   13.5816 C.ar    1  UNL1        0.0400
      7 C          64.2785   86.1669   14.6093 C.ar    1  UNL1        0.0406
      8 C          63.8501   87.5090   14.0944 C.ar    1  UNL1        0.1453
      9 O          63.2188   87.3092   12.7485 O.2     1  UNL1       -0.4533
     10 C          63.2570   85.8436   12.4315 C.ar    1  UNL1        0.1497
     11 C          64.0227   88.8207   14.8013 C.ar    1  UNL1        0.0346
     12 C          64.8898   89.8876   14.2014 C.ar    1  UNL1        0.0039
     13 C          65.0623   91.1993   14.9084 C.ar    1  UNL1        0.0115
     14 C          64.3679   91.4441   16.2152 C.ar    1  UNL1        0.0577
     15 CL         64.5405   92.7558   16.9221 Cl      1  UNL1       -0.0822
     16 C          63.5008   90.3772   16.8151 C.ar    1  UNL1        0.0115
     17 C          63.3283   89.0655   16.1081 C.ar    1  UNL1        0.0039
     18 N          60.8910   86.5881   10.3231 N.am    1  UNL1       -0.2994
     19 C          62.1251   85.7666   10.0943 C.2     1  UNL1        0.2491
     20 O          62.7042   85.6512    8.7153 O.2     1  UNL1       -0.2700
     21 H          60.5109   86.6639   11.2281 H       1  UNL1        0.1500
     22 C          60.2361   87.2940    9.1729 C.3     1  UNL1        0.0889
     23 C          60.1042   85.9882    8.4466 C.3     1  UNL1        0.0254
     24 C          59.5812   87.9999    8.0228 C.2     1  UNL1        0.0663
     25 O          58.5670   87.2827    7.1820 O.co2   1  UNL1       -0.5476
     26 O          59.9406   89.4230    7.7135 O.co2   1  UNL1       -0.5476
     27 C          60.0486   88.6797   11.3627 C.3     1  UNL1        0.0021
     28 C          60.3680   88.5998    9.8992 C.3     1  UNL1        0.0234
@<TRIPOS>UNITY_ATOM_ATTR
25 1
charge -1
@<TRIPOS>BOND
     1    27    28    1
     2    28    22    1
     3    22    23    1
     4    22    18    1
     5    18    19   am
     6    19    20    2
     7    19     1    1
     8     1     2   ar
     9     2     3   ar
    10     3     4    1
    11     3     5   ar
    12     5     6   ar
    13     6     7   ar
    14     7     8   ar
    15     8    11    1
    16    11    12   ar
    17    12    13   ar
    18    13    14   ar
    19    14    15    1
    20    14    16   ar
    21    16    17   ar
    22     8     9   ar
    23     9    10   ar
    24    22    24    1
    25    24    25   ar
    26    24    26   ar
    27    10     1   ar
    28    10     6   ar
    29    17    11   ar
    30    18    21    1
@<TRIPOS>MOLECULE
*****
 28 30 0 0 0
SMALL
GASTEIGER

@<TRIPOS>ATOM
      1 C          63.0567   89.9603   13.1632 C.ar    1  UNL1        0.0900
      2 C          62.9207   89.4543   14.5687 C.ar    1  UNL1        0.0372
      3 C          63.7554   90.0489   15.6639 C.ar    1  UNL1        0.1405
      4 F          63.6194   89.5429   17.0695 F       1  UNL1       -0.2042
      5 C          64.7263   91.1495   15.3536 C.ar    1  UNL1        0.0328
      6 C          64.8623   91.6555   13.9481 C.ar    1  UNL1        0.0400
      7 C          65.7280   92.7214   13.3445 C.ar    1  UNL1        0.0406
      8 C          65.4282   92.7855   11.8762 C.ar    1  UNL1        0.1453
      9 O          64.3772   91.7593   11.5723 O.2     1  UNL1       -0.4533
     10 C          64.0275   91.0609   12.8529 C.ar    1  UNL1        0.1497
     11 C          66.0672   93.7131   10.8855 C.ar    1  UNL1        0.0346
     12 C          65.6471   95.1518   10.8260 C.ar    1  UNL1        0.0039
     13 C          66.2862   96.0793    9.8353 C.ar    1  UNL1        0.0115
     14 C          67.3453   95.5681    8.9042 C.ar    1  UNL1        0.0577
     15 CL         67.9843   96.4957    7.9136 Cl      1  UNL1       -0.0822
     16 C          67.7654   94.1294    8.9638 C.ar    1  UNL1        0.0115
     17 C          67.1263   93.2019    9.9544 C.ar    1  UNL1        0.0039
     18 N          62.6066   88.0482   11.4627 N.am    1  UNL1       -0.2994
     19 C          62.2219   89.3657   12.0679 C.2     1  UNL1        0.2491
     20 O          61.0022   90.0886   11.5778 O.2     1  UNL1       -0.2700
     21 H          63.4070   87.5738   11.7844 H       1  UNL1        0.1500
     22 C          61.7717   87.4537   10.3675 C.3     1  UNL1        0.0889
     23 C          62.1208   88.6077    9.4751 C.3     1  UNL1        0.0254
     24 C          60.9369   86.8592    9.2722 C.2     1  UNL1        0.0663
     25 O          59.5091   87.2862    9.1016 O.co2   1  UNL1       -0.5476
     26 O          61.5299   85.8378    8.3476 O.co2   1  UNL1       -0.5476
     27 C          62.5112   85.4651   11.8670 C.3     1  UNL1        0.0021
     28 C          61.4227   86.2997   11.2598 C.3     1  UNL1        0.0234
@<TRIPOS>UNITY_ATOM_ATTR
25 1
charge -1
@<TRIPOS>BOND
     1    27    28    1
     2    28    22    1
     3    22    23    1
     4    22    18    1
     5    18    19   am
     6    19    20    2
     7    19     1    1
     8     1     2   ar
     9     2     3   ar
    10     3     4    1
    11     3     5   ar
    12     5     6   ar
    13     6     7   ar
    14     7     8   ar
    15     8    11    1
    16    11    12   ar
    17    12    13   ar
    18    13    14   ar
    19    14    15    1
    20    14    16   ar
    21    16    17   ar
    22     8     9   ar
    23     9    10   ar
    24    22    24    1
    25    24    25   ar
    26    24    26   ar
    27    10     1   ar
    28    10     6   ar
    29    17    11   ar
    30    18    21    1
