@<TRIPOS>MOLECULE
*****
 44 48 0 0 0
SMALL
GASTEIGER

@<TRIPOS>ATOM
      1 C          61.7984   86.1353   10.9197 C.3     1  UNL1        0.1696
      2 C          62.5176   84.9594   11.5113 C.3     1  UNL1        0.1274
      3 N          63.4336   84.9241   12.6986 N.am    1  UNL1       -0.2518
      4 C          64.0018   83.5791   13.0425 C.2     1  UNL1        0.2528
      5 O          64.9294   83.4336   14.2123 O.2     1  UNL1       -0.2696
      6 C          63.8567   86.0559   13.5875 C.ar    1  UNL1        0.0678
      7 C          64.7879   85.5871   14.6660 C.ar    1  UNL1        0.0162
      8 C          65.3306   86.5650   15.6655 C.ar    1  UNL1        0.0014
      9 C          64.9421   88.0117   15.5866 C.ar    1  UNL1        0.0014
     10 C          64.0109   88.4805   14.5081 C.ar    1  UNL1        0.0162
     11 C          63.4682   87.5026   13.5086 C.ar    1  UNL1        0.0679
     12 N          62.5607   88.1747   12.5213 N.am    1  UNL1       -0.2517
     13 C          61.8175   87.5663   11.3691 C.2     1  UNL1        0.2493
     14 O          60.9833   88.5140   10.5594 O.2     1  UNL1       -0.2727
     15 C          63.6422   82.3796   12.2167 C.ar    1  UNL1        0.0540
     16 C          63.9708   82.3507   10.7535 C.ar    1  UNL1        0.0068
     17 C          63.6114   81.1512    9.9276 C.ar    1  UNL1        0.0298
     18 C          62.9232   79.9807   10.5650 C.ar    1  UNL1        0.1401
     19 F          62.5636   78.7812    9.7392 F       1  UNL1       -0.2042
     20 C          62.5946   80.0097   12.0283 C.ar    1  UNL1        0.0298
     21 C          62.9541   81.2091   12.8541 C.ar    1  UNL1        0.0068
     22 C          61.5875   85.6317    8.3797 C.2     1  UNL1        0.2371
     23 O          63.0786   85.7160    8.2391 O.2     1  UNL1       -0.2737
     24 N          60.9474   85.8413    9.7199 N.am    1  UNL1       -0.2959
     25 H          59.9688   85.7860    9.8121 H       1  UNL1        0.1499
     26 C          60.7365   85.3377    7.1799 C.3     1  UNL1        0.1316
     27 C          61.2883   84.5169    6.0520 C.3     1  UNL1        0.0270
     28 C          59.0404   87.2754    7.5240 C.3     1  UNL1        0.0862
     29 N          59.3340   85.8645    7.1079 N.3     1  UNL1       -0.2902
     30 H          59.0356   85.7759    6.1365 H       1  UNL1        0.1237
     31 C          62.3713   89.6505   12.7114 C.3     1  UNL1        0.1278
     32 C          63.3251   90.6173   12.0745 C.ar    1  UNL1        0.0320
     33 C          63.2347   90.9016   10.6044 C.ar    1  UNL1        0.1363
     34 C          64.1884   91.8684    9.9675 C.ar    1  UNL1        0.0366
     35 C          65.2326   92.5508   10.8006 C.ar    1  UNL1        0.0031
     36 C          65.3230   92.2665   12.2706 C.ar    1  UNL1        0.0004
     37 C          66.3671   92.9490   13.1037 C.ar    1  UNL1        0.0067
     38 C          66.4575   92.6646   14.5737 C.ar    1  UNL1        0.0346
     39 BR         67.5016   93.3471   15.4068 Br      1  UNL1       -0.0490
     40 C          65.5037   91.6978   15.2107 C.ar    1  UNL1        0.0067
     41 C          64.4596   91.0154   14.3775 C.ar    1  UNL1        0.0003
     42 C          64.3692   91.2997   12.9076 C.ar    1  UNL1        0.0006
     43 O          62.1906   90.2192    9.7713 O.3     1  UNL1       -0.4717
     44 C          60.7386   90.4806    9.5007 C.3     1  UNL1        0.2525
@<TRIPOS>BOND
     1    28    29    1
     2    29    26    1
     3    26    27    1
     4    26    22    1
     5    22    23    2
     6    22    24   am
     7     1    24    1
     8     1     2    1
     9     2     3    1
    10     3     4   am
    11     4     5    2
    12     4    15    1
    13    15    16   ar
    14    16    17   ar
    15    17    18   ar
    16    18    19    1
    17    18    20   ar
    18    20    21   ar
    19     3     6    1
    20     6     7   ar
    21     7     8   ar
    22     8     9   ar
    23     9    10   ar
    24    10    11   ar
    25    11    12    1
    26    12    31    1
    27    31    32    1
    28    32    33   ar
    29    33    43    1
    30    43    44    1
    31    33    34   ar
    32    34    35   ar
    33    35    36   ar
    34    36    37   ar
    35    37    38   ar
    36    38    39    1
    37    38    40   ar
    38    40    41   ar
    39    41    42   ar
    40    12    13   am
    41    13    14    2
    42    13     1    1
    43    21    15   ar
    44    11     6   ar
    45    42    32   ar
    46    42    36   ar
    47    29    30    1
    48    24    25    1
@<TRIPOS>MOLECULE
*****
 44 48 0 0 0
SMALL
GASTEIGER

@<TRIPOS>ATOM
      1 C          62.7904   86.7295   11.6498 C.3     1  UNL1        0.1696
      2 C          62.8850   85.6553   12.6926 C.3     1  UNL1        0.1274
      3 N          63.0224   85.8043   14.1788 N.am    1  UNL1       -0.2518
      4 C          63.0923   84.5241   14.9574 C.2     1  UNL1        0.2528
      5 O          63.2302   84.5610   16.4507 O.2     1  UNL1       -0.2696
      6 C          63.0990   87.0641   14.9894 C.ar    1  UNL1        0.0678
      7 C          63.2337   86.7664   16.4534 C.ar    1  UNL1        0.0162
      8 C          63.3266   87.8907   17.4419 C.ar    1  UNL1        0.0014
      9 C          63.2848   89.3128   16.9664 C.ar    1  UNL1        0.0014
     10 C          63.1502   89.6105   15.5024 C.ar    1  UNL1        0.0162
     11 C          63.0573   88.4861   14.5140 C.ar    1  UNL1        0.0679
     12 N          62.9285   88.9995   13.1104 N.am    1  UNL1       -0.2517
     13 C          62.8097   88.2178   11.8358 C.2     1  UNL1        0.2493
     14 O          62.6952   89.0320   10.5812 O.2     1  UNL1       -0.2727
     15 C          63.0244   83.2070   14.2429 C.ar    1  UNL1        0.0540
     16 C          61.8439   82.3040   14.4451 C.ar    1  UNL1        0.0068
     17 C          61.7759   80.9869   13.7305 C.ar    1  UNL1        0.0298
     18 C          62.8886   80.5728   12.8138 C.ar    1  UNL1        0.1401
     19 F          62.8207   79.2556   12.0992 F       1  UNL1       -0.2042
     20 C          64.0691   81.4757   12.6116 C.ar    1  UNL1        0.0298
     21 C          64.1371   82.7928   13.3261 C.ar    1  UNL1        0.0068
     22 C          61.3205   86.2714    9.5571 C.2     1  UNL1        0.2371
     23 O          60.1134   86.7680   10.2962 O.2     1  UNL1       -0.2737
     24 N          62.6590   86.2522   10.2339 N.am    1  UNL1       -0.2959
     25 H          63.4512   85.9263    9.7487 H       1  UNL1        0.1499
     26 C          61.1891   85.7941    8.1411 C.3     1  UNL1        0.1316
     27 C          62.3847   85.2444    7.4209 C.3     1  UNL1        0.0270
     28 C          59.0799   87.1462    7.4535 C.3     1  UNL1        0.0862
     29 N          59.8623   85.8664    7.4453 N.3     1  UNL1       -0.2902
     30 H          60.0294   85.6297    6.4673 H       1  UNL1        0.1237
     31 C          62.9171   90.4921   12.9620 C.3     1  UNL1        0.1278
     32 C          64.0935   91.1942   12.3511 C.ar    1  UNL1        0.0320
     33 C          64.0758   91.5608   10.8967 C.ar    1  UNL1        0.1363
     34 C          65.2522   92.2629   10.2858 C.ar    1  UNL1        0.0366
     35 C          66.4463   92.5983   11.1294 C.ar    1  UNL1        0.0031
     36 C          66.4640   92.2317   12.5838 C.ar    1  UNL1        0.0004
     37 C          67.6582   92.5672   13.4274 C.ar    1  UNL1        0.0067
     38 C          67.6758   92.2006   14.8817 C.ar    1  UNL1        0.0346
     39 BR         68.8699   92.5360   15.7253 Br      1  UNL1       -0.0490
     40 C          66.4994   91.4985   15.4926 C.ar    1  UNL1        0.0067
     41 C          65.3053   91.1631   14.6490 C.ar    1  UNL1        0.0003
     42 C          65.2876   91.5296   13.1947 C.ar    1  UNL1        0.0006
     43 O          62.8817   91.2253   10.0532 O.3     1  UNL1       -0.4717
     44 C          61.4083   91.1382   10.3204 C.3     1  UNL1        0.2525
@<TRIPOS>BOND
     1    28    29    1
     2    29    26    1
     3    26    27    1
     4    26    22    1
     5    22    23    2
     6    22    24   am
     7     1    24    1
     8     1     2    1
     9     2     3    1
    10     3     4   am
    11     4     5    2
    12     4    15    1
    13    15    16   ar
    14    16    17   ar
    15    17    18   ar
    16    18    19    1
    17    18    20   ar
    18    20    21   ar
    19     3     6    1
    20     6     7   ar
    21     7     8   ar
    22     8     9   ar
    23     9    10   ar
    24    10    11   ar
    25    11    12    1
    26    12    31    1
    27    31    32    1
    28    32    33   ar
    29    33    43    1
    30    43    44    1
    31    33    34   ar
    32    34    35   ar
    33    35    36   ar
    34    36    37   ar
    35    37    38   ar
    36    38    39    1
    37    38    40   ar
    38    40    41   ar
    39    41    42   ar
    40    12    13   am
    41    13    14    2
    42    13     1    1
    43    21    15   ar
    44    11     6   ar
    45    42    32   ar
    46    42    36   ar
    47    29    30    1
    48    24    25    1
@<TRIPOS>MOLECULE
*****
 44 48 0 0 0
SMALL
GASTEIGER

@<TRIPOS>ATOM
      1 C          61.5202   89.0028    9.4841 C.3     1  UNL1        0.1696
      2 C          61.8682   87.5728    9.1943 C.3     1  UNL1        0.1274
      3 N          62.4691   86.5517   10.1142 N.am    1  UNL1       -0.2518
      4 C          62.6991   85.1944    9.5185 C.2     1  UNL1        0.2528
      5 O          63.2959   84.1002   10.3532 O.2     1  UNL1       -0.2696
      6 C          62.8704   86.7083   11.5510 C.ar    1  UNL1        0.0678
      7 C          63.4346   85.4334   12.1045 C.ar    1  UNL1        0.0162
      8 C          63.8983   85.3750   13.5298 C.ar    1  UNL1        0.0014
      9 C          63.7978   86.5915   14.4016 C.ar    1  UNL1        0.0014
     10 C          63.2336   87.8664   13.8482 C.ar    1  UNL1        0.0162
     11 C          62.7699   87.9248   12.4228 C.ar    1  UNL1        0.0679
     12 N          62.2433   89.2850   12.0731 N.am    1  UNL1       -0.2517
     13 C          61.6871   89.7649   10.7653 C.2     1  UNL1        0.2493
     14 O          61.2385   91.1959   10.7346 O.2     1  UNL1       -0.2727
     15 C          62.3325   84.9312    8.0879 C.ar    1  UNL1        0.0540
     16 C          63.4057   84.6536    7.0775 C.ar    1  UNL1        0.0068
     17 C          63.0391   84.3905    5.6470 C.ar    1  UNL1        0.0298
     18 C          61.5992   84.4049    5.2270 C.ar    1  UNL1        0.1401
     19 F          61.2325   84.1418    3.7965 F       1  UNL1       -0.2042
     20 C          60.5260   84.6826    6.2374 C.ar    1  UNL1        0.0298
     21 C          60.8925   84.9457    7.6679 C.ar    1  UNL1        0.0068
     22 C          59.8162   89.1739    7.5304 C.2     1  UNL1        0.2371
     23 O          59.2989   87.8054    7.8617 O.2     1  UNL1       -0.2737
     24 N          60.9267   89.7726    8.3416 N.am    1  UNL1       -0.2959
     25 H          61.2662   90.6708    8.1242 H       1  UNL1        0.1499
     26 C          59.2227   89.9437    6.3879 C.3     1  UNL1        0.1316
     27 C          60.1190   90.5999    5.3798 C.3     1  UNL1        0.0270
     28 C          57.1407   90.9488    5.2027 C.3     1  UNL1        0.0862
     29 N          57.7331   90.0572    6.2535 N.3     1  UNL1       -0.2902
     30 H          57.3811   89.1168    6.0743 H       1  UNL1        0.1237
     31 C          62.2774   90.2997   13.1773 C.3     1  UNL1        0.1278
     32 C          63.5903   90.8501   13.6500 C.ar    1  UNL1        0.0320
     33 C          63.9621   90.7612   15.1004 C.ar    1  UNL1        0.1363
     34 C          65.2750   91.3116   15.5732 C.ar    1  UNL1        0.0366
     35 C          66.2161   91.9507   14.5955 C.ar    1  UNL1        0.0031
     36 C          65.8442   92.0396   13.1450 C.ar    1  UNL1        0.0004
     37 C          66.7852   92.6788   12.1673 C.ar    1  UNL1        0.0067
     38 C          66.4133   92.7676   10.7168 C.ar    1  UNL1        0.0346
     39 BR         67.3543   93.4068    9.7391 Br      1  UNL1       -0.0490
     40 C          65.1004   92.2173   10.2441 C.ar    1  UNL1        0.0067
     41 C          64.1594   91.5781   11.2219 C.ar    1  UNL1        0.0003
     42 C          64.5313   91.4893   12.6722 C.ar    1  UNL1        0.0006
     43 O          63.0212   90.1221   16.0782 O.3     1  UNL1       -0.4717
     44 C          63.1433   88.9894   17.0540 C.3     1  UNL1        0.2525
@<TRIPOS>BOND
     1    28    29    1
     2    29    26    1
     3    26    27    1
     4    26    22    1
     5    22    23    2
     6    22    24   am
     7     1    24    1
     8     1     2    1
     9     2     3    1
    10     3     4   am
    11     4     5    2
    12     4    15    1
    13    15    16   ar
    14    16    17   ar
    15    17    18   ar
    16    18    19    1
    17    18    20   ar
    18    20    21   ar
    19     3     6    1
    20     6     7   ar
    21     7     8   ar
    22     8     9   ar
    23     9    10   ar
    24    10    11   ar
    25    11    12    1
    26    12    31    1
    27    31    32    1
    28    32    33   ar
    29    33    43    1
    30    43    44    1
    31    33    34   ar
    32    34    35   ar
    33    35    36   ar
    34    36    37   ar
    35    37    38   ar
    36    38    39    1
    37    38    40   ar
    38    40    41   ar
    39    41    42   ar
    40    12    13   am
    41    13    14    2
    42    13     1    1
    43    21    15   ar
    44    11     6   ar
    45    42    32   ar
    46    42    36   ar
    47    29    30    1
    48    24    25    1
@<TRIPOS>MOLECULE
*****
 44 48 0 0 0
SMALL
GASTEIGER

@<TRIPOS>ATOM
      1 C          63.7195   91.2373   11.0643 C.3     1  UNL1        0.1696
      2 C          64.0469   91.1840   12.5272 C.3     1  UNL1        0.1274
      3 N          63.2127   90.6494   13.6533 N.am    1  UNL1       -0.2518
      4 C          63.8274   90.7401   15.0186 C.2     1  UNL1        0.2528
      5 O          63.0765   90.2337   16.2144 O.2     1  UNL1       -0.2696
      6 C          61.8451   90.0360   13.5948 C.ar    1  UNL1        0.0678
      7 C          61.3675   89.6307   14.9578 C.ar    1  UNL1        0.0162
      8 C          60.0187   88.9951   15.1215 C.ar    1  UNL1        0.0014
      9 C          59.1475   88.7649   13.9223 C.ar    1  UNL1        0.0014
     10 C          59.6251   89.1702   12.5594 C.ar    1  UNL1        0.0162
     11 C          60.9739   89.8057   12.3957 C.ar    1  UNL1        0.0679
     12 N          61.2552   90.1320   10.9588 N.am    1  UNL1       -0.2517
     13 C          62.4770   90.7692   10.3663 C.2     1  UNL1        0.2493
     14 O          62.4534   90.9638    8.8792 O.2     1  UNL1       -0.2727
     15 C          65.1929   91.3373   15.1881 C.ar    1  UNL1        0.0540
     16 C          66.3151   90.9102   14.2892 C.ar    1  UNL1        0.0068
     17 C          67.6807   91.5073   14.4586 C.ar    1  UNL1        0.0298
     18 C          67.9240   92.5315   15.5272 C.ar    1  UNL1        0.1401
     19 F          69.2895   93.1287   15.6967 F       1  UNL1       -0.2042
     20 C          66.8018   92.9586   16.4261 C.ar    1  UNL1        0.0298
     21 C          65.4363   92.3615   16.2567 C.ar    1  UNL1        0.0068
     22 C          65.6639   92.9239   10.7114 C.2     1  UNL1        0.2371
     23 O          65.4995   93.4086   12.1214 O.2     1  UNL1       -0.2737
     24 N          64.7740   91.8383   10.1829 N.am    1  UNL1       -0.2959
     25 H          64.8819   91.5202    9.2575 H       1  UNL1        0.1499
     26 C          66.7184   93.5248    9.8300 C.3     1  UNL1        0.1316
     27 C          67.9904   92.7754    9.5644 C.3     1  UNL1        0.0270
     28 C          66.8613   96.1147    9.9781 C.3     1  UNL1        0.0862
     29 N          66.5010   94.8751    9.2141 N.3     1  UNL1       -0.2902
     30 H          67.0413   94.8948    8.3493 H       1  UNL1        0.1237
     31 C          60.1712   89.7738    9.9859 C.3     1  UNL1        0.1278
     32 C          60.2755   88.5151    9.1767 C.ar    1  UNL1        0.0320
     33 C          59.6203   88.4330    7.8299 C.ar    1  UNL1        0.1363
     34 C          59.7246   87.1742    7.0206 C.ar    1  UNL1        0.0366
     35 C          60.4840   85.9977    7.5583 C.ar    1  UNL1        0.0031
     36 C          61.1392   86.0799    8.9052 C.ar    1  UNL1        0.0004
     37 C          61.8986   84.9033    9.4429 C.ar    1  UNL1        0.0067
     38 C          62.5537   84.9856   10.7897 C.ar    1  UNL1        0.0346
     39 BR         63.3131   83.8090   11.3274 Br      1  UNL1       -0.0490
     40 C          62.4494   86.2443   11.5990 C.ar    1  UNL1        0.0067
     41 C          61.6900   87.4208   11.0612 C.ar    1  UNL1        0.0003
     42 C          61.0349   87.3386    9.7144 C.ar    1  UNL1        0.0006
     43 O          58.8609   89.6094    7.2921 O.3     1  UNL1       -0.4717
     44 C          58.7850   90.2759    5.9505 C.3     1  UNL1        0.2525
@<TRIPOS>BOND
     1    28    29    1
     2    29    26    1
     3    26    27    1
     4    26    22    1
     5    22    23    2
     6    22    24   am
     7     1    24    1
     8     1     2    1
     9     2     3    1
    10     3     4   am
    11     4     5    2
    12     4    15    1
    13    15    16   ar
    14    16    17   ar
    15    17    18   ar
    16    18    19    1
    17    18    20   ar
    18    20    21   ar
    19     3     6    1
    20     6     7   ar
    21     7     8   ar
    22     8     9   ar
    23     9    10   ar
    24    10    11   ar
    25    11    12    1
    26    12    31    1
    27    31    32    1
    28    32    33   ar
    29    33    43    1
    30    43    44    1
    31    33    34   ar
    32    34    35   ar
    33    35    36   ar
    34    36    37   ar
    35    37    38   ar
    36    38    39    1
    37    38    40   ar
    38    40    41   ar
    39    41    42   ar
    40    12    13   am
    41    13    14    2
    42    13     1    1
    43    21    15   ar
    44    11     6   ar
    45    42    32   ar
    46    42    36   ar
    47    29    30    1
    48    24    25    1
