@<TRIPOS>MOLECULE
*****
 52 59 0 0 0
SMALL
GASTEIGER

@<TRIPOS>ATOM
      1 C          63.5840   95.3224   -3.8203 C.3     1  UNL1        0.1445
      2 C          62.1349   95.6829   -3.9626 C.3     1  UNL1        0.0322
      3 C          61.1517   95.2674   -2.9086 C.3     1  UNL1        0.0049
      4 C          59.7027   95.6279   -3.0510 C.3     1  UNL1        0.0002
      5 C          61.6176   94.4914   -1.7125 C.3     1  UNL1        0.0298
      6 C          63.0667   94.1310   -1.5702 C.3     1  UNL1        0.1418
      7 O          64.0499   94.5465   -2.6241 O.3     1  UNL1       -0.3537
      8 C          63.2305   93.3654   -0.2907 C.3     1  UNL1        0.1373
      9 O          64.5163   92.8100    0.2461 O.3     1  UNL1       -0.3820
     10 C          61.8826   93.2527    0.3577 C.3     1  UNL1        0.0272
     11 C          62.9882   92.5966    1.1305 C.3     1  UNL1        0.0025
     12 C          61.4341   92.6062    1.6348 C.3     1  UNL1        0.0023
     13 C          62.4308   91.9103    2.5135 C.3     1  UNL1        0.0001
     14 C          61.9823   91.2639    3.7906 C.3     1  UNL1        0.0001
     15 C          60.5371   91.3134    4.1890 C.3     1  UNL1        0.0023
     16 C          60.0886   90.6669    5.4661 C.3     1  UNL1        0.0251
     17 C          60.1493   89.9123    6.7610 C.3     1  UNL1        0.0024
     18 C          61.5550   90.3554    5.5174 C.3     1  UNL1        0.0024
     19 C          58.6432   90.7165    5.8645 C.3     1  UNL1        0.1177
     20 C          57.6465   91.4124    4.9858 C.3     1  UNL1        0.0296
     21 C          58.0950   92.0588    3.7087 C.3     1  UNL1        0.0025
     22 C          59.5403   92.0093    3.3103 C.3     1  UNL1        0.0002
     23 C          58.5435   92.7053    2.4316 C.3     1  UNL1        0.0000
     24 C          59.9888   92.6558    2.0332 C.3     1  UNL1        0.0001
     25 C          58.9920   93.3517    1.1545 C.3     1  UNL1        0.0000
     26 C          59.4405   93.9981   -0.1226 C.3     1  UNL1        0.0002
     27 C          60.8858   93.9486   -0.5210 C.3     1  UNL1        0.0046
     28 C          60.0088   94.6768   -1.4960 C.3     1  UNL1        0.0002
     29 H          64.3473   92.3593    1.0882 H       1  UNL1        0.2104
     30 C          64.5672   95.7379   -4.8742 C.3     1  UNL1        0.1664
     31 C          64.5874   95.0360   -6.1997 C.3     1  UNL1        0.1156
     32 C          65.5852   94.0525   -5.6637 C.3     1  UNL1        0.0319
     33 C          63.5895   96.0194   -6.7356 C.3     1  UNL1        0.0319
     34 O          64.6075   94.3340   -7.5251 O.3     1  UNL1       -0.3843
     35 H          65.2202   93.5831   -7.4841 H       1  UNL1        0.2103
     36 O          65.5303   96.8554   -4.6026 O.3     1  UNL1       -0.3514
     37 C          65.7081   96.8556   -2.0106 C.3     1  UNL1        0.0346
     38 C          66.3672   96.8383   -3.3579 C.3     1  UNL1        0.1423
     39 O          58.1947   90.0700    7.1416 O.3     1  UNL1       -0.3320
     40 C          59.1159   89.1417    7.8761 C.3     1  UNL1        0.2518
     41 C          60.0794   89.6867    8.8884 C.3     1  UNL1        0.1343
     42 N          61.0006   88.7584    9.6229 N.3     1  UNL1       -0.2651
     43 C          60.9583   87.2849    9.3451 C.3     1  UNL1        0.1048
     44 C          59.9949   86.7398    8.3329 C.3     1  UNL1        0.1621
     45 O          59.0736   87.6682    7.5984 O.3     1  UNL1       -0.3280
     46 C          61.9640   89.3034   10.6350 C.3     1  UNL1        0.0898
     47 C          61.9753   89.4264   12.1300 C.3     1  UNL1        0.0896
     48 N          63.3267   90.0744   12.0666 N.3     1  UNL1       -0.2716
     49 C          63.3154   89.9514   10.5716 C.3     1  UNL1        0.0896
     50 C          64.2901   90.6195   13.0788 C.3     1  UNL1        0.0577
     51 C          64.9253   91.9611   12.8632 C.3     1  UNL1        0.0173
     52 C          64.6184   89.8229   14.3066 C.3     1  UNL1        0.0173
@<TRIPOS>BOND
     1    37    38    1
     2    38    36    1
     3    30    36    1
     4    30     1    1
     5     1     2    1
     6     2     3    1
     7     3     4    1
     8     5     3    1
     9     5     6    1
    10     6     7    1
    11     6     8    1
    12     8     9    1
    13     8    10    1
    14    10    11    1
    15    10    12    1
    16    12    13    1
    17    13    14    1
    18    15    14    1
    19    15    16    1
    20    16    17    1
    21    16    18    1
    22    16    19    1
    23    19    39    1
    24    40    39    1
    25    40    41    1
    26    41    42    1
    27    42    46    1
    28    46    47    1
    29    47    48    1
    30    48    50    1
    31    50    51    1
    32    50    52    1
    33    48    49    1
    34    42    43    1
    35    43    44    1
    36    44    45    1
    37    19    20    1
    38    20    21    1
    39    22    21    1
    40    22    23    1
    41    24    23    1
    42    24    25    1
    43    25    26    1
    44    26    27    1
    45    27    28    1
    46    30    31    1
    47    31    32    1
    48    31    33    1
    49    31    34    1
    50     7     1    1
    51    27    10    1
    52    27     5    1
    53    24    12    1
    54    22    15    1
    55    45    40    1
    56    24    22    1
    57    49    46    1
    58     9    29    1
    59    34    35    1
@<TRIPOS>MOLECULE
*****
 52 59 0 0 0
SMALL
GASTEIGER

@<TRIPOS>ATOM
      1 C          63.6632   95.7694   -3.3408 C.3     1  UNL1        0.1445
      2 C          62.2274   96.2018   -3.3770 C.3     1  UNL1        0.0322
      3 C          61.2737   95.7251   -2.3218 C.3     1  UNL1        0.0049
      4 C          59.8378   96.1576   -2.3581 C.3     1  UNL1        0.0002
      5 C          61.7559   94.8160   -1.2305 C.3     1  UNL1        0.0298
      6 C          63.1918   94.3836   -1.1943 C.3     1  UNL1        0.1418
      7 O          64.1454   94.8603   -2.2494 O.3     1  UNL1       -0.3537
      8 C          63.3766   93.4891   -0.0045 C.3     1  UNL1        0.1373
      9 O          64.6581   92.8306    0.4129 O.3     1  UNL1       -0.3820
     10 C          62.0550   93.3686    0.6946 C.3     1  UNL1        0.0272
     11 C          63.1624   92.5941    1.3456 C.3     1  UNL1        0.0025
     12 C          61.6342   92.6182    1.9233 C.3     1  UNL1        0.0023
     13 C          62.6358   91.7981    2.6811 C.3     1  UNL1        0.0001
     14 C          62.2150   91.0476    3.9098 C.3     1  UNL1        0.0001
     15 C          60.7926   91.1172    4.3807 C.3     1  UNL1        0.0023
     16 C          60.3718   90.3667    5.6094 C.3     1  UNL1        0.0251
     17 C          60.4550   89.4858    6.8206 C.3     1  UNL1        0.0024
     18 C          61.8231   89.9912    5.5591 C.3     1  UNL1        0.0024
     19 C          58.9493   90.4363    6.0804 C.3     1  UNL1        0.1177
     20 C          57.9477   91.2564    5.3227 C.3     1  UNL1        0.0296
     21 C          58.3685   92.0069    4.0940 C.3     1  UNL1        0.0025
     22 C          59.7909   91.9373    3.6230 C.3     1  UNL1        0.0002
     23 C          58.7893   92.7574    2.8653 C.3     1  UNL1        0.0000
     24 C          60.2117   92.6878    2.3943 C.3     1  UNL1        0.0001
     25 C          59.2101   93.5079    1.6366 C.3     1  UNL1        0.0000
     26 C          59.6309   94.2584    0.4079 C.3     1  UNL1        0.0002
     27 C          61.0533   94.1888   -0.0631 C.3     1  UNL1        0.0046
     28 C          60.1684   95.0455   -0.9193 C.3     1  UNL1        0.0002
     29 H          64.5059   92.3062    1.2147 H       1  UNL1        0.2104
     30 C          64.6169   96.2461   -4.3959 C.3     1  UNL1        0.1664
     31 C          66.0412   96.5508   -4.0372 C.3     1  UNL1        0.1156
     32 C          65.6290   96.8062   -2.6177 C.3     1  UNL1        0.0319
     33 C          66.4533   96.2954   -5.4567 C.3     1  UNL1        0.0319
     34 O          67.4654   96.8555   -3.6785 O.3     1  UNL1       -0.3843
     35 H          67.5211   97.0769   -2.7357 H       1  UNL1        0.2103
     36 O          64.1463   96.4181   -5.8098 O.3     1  UNL1       -0.3514
     37 C          62.0429   95.2039   -6.7324 C.3     1  UNL1        0.0346
     38 C          62.6781   96.4154   -6.1171 C.3     1  UNL1        0.1423
     39 O          58.5285   89.6858    7.3091 O.3     1  UNL1       -0.3320
     40 C          59.4769   89.5432    8.4624 C.3     1  UNL1        0.2518
     41 C          60.0708   88.2037    8.7838 C.3     1  UNL1        0.1343
     42 N          61.0192   88.0611    9.9371 N.3     1  UNL1       -0.2651
     43 C          61.3738   89.2578   10.7690 C.3     1  UNL1        0.1048
     44 C          60.7799   90.5972   10.4476 C.3     1  UNL1        0.1621
     45 O          59.8315   90.7399    9.2943 O.3     1  UNL1       -0.3280
     46 C          61.6131   86.7217   10.2585 C.3     1  UNL1        0.0898
     47 C          62.3132   85.6550    9.4698 C.3     1  UNL1        0.0896
     48 N          62.4530   84.8274   10.7130 N.3     1  UNL1       -0.2716
     49 C          61.7528   85.8941   11.5017 C.3     1  UNL1        0.0896
     50 C          63.0468   83.4880   11.0344 C.3     1  UNL1        0.0577
     51 C          62.4968   82.6766   12.1698 C.3     1  UNL1        0.0173
     52 C          64.1907   82.9600   10.2204 C.3     1  UNL1        0.0173
@<TRIPOS>BOND
     1    37    38    1
     2    38    36    1
     3    30    36    1
     4    30     1    1
     5     1     2    1
     6     2     3    1
     7     3     4    1
     8     5     3    1
     9     5     6    1
    10     6     7    1
    11     6     8    1
    12     8     9    1
    13     8    10    1
    14    10    11    1
    15    10    12    1
    16    12    13    1
    17    13    14    1
    18    15    14    1
    19    15    16    1
    20    16    17    1
    21    16    18    1
    22    16    19    1
    23    19    39    1
    24    40    39    1
    25    40    41    1
    26    41    42    1
    27    42    46    1
    28    46    47    1
    29    47    48    1
    30    48    50    1
    31    50    51    1
    32    50    52    1
    33    48    49    1
    34    42    43    1
    35    43    44    1
    36    44    45    1
    37    19    20    1
    38    20    21    1
    39    22    21    1
    40    22    23    1
    41    24    23    1
    42    24    25    1
    43    25    26    1
    44    26    27    1
    45    27    28    1
    46    30    31    1
    47    31    32    1
    48    31    33    1
    49    31    34    1
    50     7     1    1
    51    27    10    1
    52    27     5    1
    53    24    12    1
    54    22    15    1
    55    45    40    1
    56    24    22    1
    57    49    46    1
    58     9    29    1
    59    34    35    1
