@<TRIPOS>MOLECULE
*****
 44 48 0 0 0
SMALL
GASTEIGER

@<TRIPOS>ATOM
      1 C          61.7894   88.4528   11.3289 C.ar    1  UNL1        0.0040
      2 C          61.4899   87.2988   10.4187 C.ar    1  UNL1        0.0719
      3 C          62.1610   86.0801   10.9794 C.ar    1  UNL1        0.1049
      4 N          62.8752   86.4809   12.2361 N.ar    1  UNL1       -0.2242
      5 N          63.7049   85.7000   13.2116 N.ar    1  UNL1       -0.1422
      6 C          64.3050   86.3856   14.4032 C.ar    1  UNL1        0.2211
      7 N          64.0753   87.8521   14.6192 N.ar    1  UNL1       -0.2060
      8 C          63.2456   88.6330   13.6436 C.ar    1  UNL1        0.1515
      9 C          62.6455   87.9474   12.4521 C.ar    1  UNL1        0.1107
     10 C          60.6644   87.3538    9.1675 C.ar    1  UNL1        0.2525
     11 N          60.1480   86.1735    8.3993 N.ar    1  UNL1       -0.1057
     12 N          59.3748   86.6890    7.2218 N.ar    1  UNL1       -0.0923
     13 C          59.4133   88.1879    7.2623 C.ar    1  UNL1        0.3086
     14 O          60.2103   88.5988    8.4648 O.2     1  UNL1       -0.4048
     15 N          58.7680   89.1135    6.2739 N.pl3   1  UNL1       -0.2871
     16 H          58.0882   88.7708    5.6498 H       1  UNL1        0.1512
     17 C          59.1586   90.5613    6.2365 C.3     1  UNL1        0.0923
     18 C          59.0452   91.3358    4.9570 C.3     1  UNL1        0.0324
     19 C          57.5538   91.3753    5.1131 C.3     1  UNL1        0.0031
     20 C          60.5365   91.2963    4.8009 C.3     1  UNL1        0.0031
     21 C          58.9317   92.1103    3.6775 C.3     1  UNL1        0.0667
     22 N          59.9293   93.1848    3.3601 N.3     1  UNL1       -0.3211
     23 H          59.8323   93.9474    4.0305 H       1  UNL1        0.1189
     24 H          59.7613   93.5370    2.4177 H       1  UNL1        0.1189
     25 C          59.9480   90.2629   11.6172 C.3     1  UNL1        0.0047
     26 C          61.3159   89.8646   11.1477 C.3     1  UNL1        0.0241
     27 C          62.2101   90.8779   10.4971 C.3     1  UNL1        0.0047
     28 N          63.0159   90.0995   13.8596 N.pl3   1  UNL1       -0.2949
     29 H          62.0985   90.4560   13.8821 H       1  UNL1        0.1537
     30 C          64.1840   91.0227   14.0415 C.ar    1  UNL1        0.0775
     31 C          64.8786   91.5985   12.8431 C.ar    1  UNL1        0.0237
     32 C          66.0467   92.5218   13.0250 C.ar    1  UNL1        0.0821
     33 C          66.5202   92.8694   14.4052 C.ar    1  UNL1        0.1468
     34 F          67.6884   93.7927   14.5870 F       1  UNL1       -0.2039
     35 C          65.8257   92.2936   15.6035 C.ar    1  UNL1        0.0607
     36 C          64.6575   91.3703   15.4217 C.ar    1  UNL1        0.1557
     37 F          63.9630   90.7946   16.6201 F       1  UNL1       -0.2028
     38 C          66.7413   93.0976   11.8266 C.2     1  UNL1        0.2480
     39 O          67.9726   92.4353   11.2833 O.2     1  UNL1       -0.2701
     40 N          66.2045   94.3356   11.1715 N.am    1  UNL1       -0.3024
     41 H          65.3964   94.7703   11.5281 H       1  UNL1        0.1497
     42 C          66.8991   94.9114    9.9732 C.3     1  UNL1        0.0720
     43 C          67.4704   96.0922    9.2456 C.3     1  UNL1        0.0213
     44 C          67.5308   94.7279    8.6252 C.3     1  UNL1        0.0213
@<TRIPOS>BOND
     1    25    26    1
     2    26    27    1
     3    26     1    1
     4     1     2   ar
     5     2    10    1
     6    10    11   ar
     7    11    12   ar
     8    12    13   ar
     9    13    15    1
    10    15    17    1
    11    17    18    1
    12    18    19    1
    13    18    20    1
    14    18    21    1
    15    21    22    1
    16    13    14   ar
    17     2     3   ar
    18     3     4   ar
    19     4     5   ar
    20     5     6   ar
    21     6     7   ar
    22     7     8   ar
    23     8    28    1
    24    28    30    1
    25    30    31   ar
    26    31    32   ar
    27    32    38    1
    28    38    39    2
    29    38    40   am
    30    40    42    1
    31    42    43    1
    32    43    44    1
    33    32    33   ar
    34    33    34    1
    35    33    35   ar
    36    35    36   ar
    37    36    37    1
    38     8     9   ar
    39     9     1   ar
    40    14    10   ar
    41     9     4   ar
    42    36    30   ar
    43    44    42    1
    44    15    16    1
    45    22    23    1
    46    22    24    1
    47    28    29    1
    48    40    41    1
@<TRIPOS>MOLECULE
*****
 44 48 0 0 0
SMALL
GASTEIGER

@<TRIPOS>ATOM
      1 C          62.6565   86.7870   11.7308 C.ar    1  UNL1        0.0040
      2 C          62.5316   85.7844   10.6222 C.ar    1  UNL1        0.0719
      3 C          61.8184   86.4438    9.4792 C.ar    1  UNL1        0.1049
      4 N          61.5026   87.8540    9.8813 N.ar    1  UNL1       -0.2242
      5 N          60.8103   88.9722    9.1602 N.ar    1  UNL1       -0.1422
      6 C          60.6360   90.3026    9.8307 C.ar    1  UNL1        0.2211
      7 N          61.1540   90.5148   11.2223 N.ar    1  UNL1       -0.2060
      8 C          61.8463   89.3965   11.9435 C.ar    1  UNL1        0.1515
      9 C          62.0206   88.0661   11.2730 C.ar    1  UNL1        0.1107
     10 C          63.0319   84.3706   10.6514 C.ar    1  UNL1        0.2525
     11 N          64.3631   83.8959   10.1489 N.ar    1  UNL1       -0.1057
     12 N          64.4428   82.4152   10.3752 N.ar    1  UNL1       -0.0923
     13 C          63.1609   81.9748   11.0177 C.ar    1  UNL1        0.3086
     14 O          62.2890   83.1833   11.1884 O.2     1  UNL1       -0.4048
     15 N          62.8122   80.5722   11.4190 N.pl3   1  UNL1       -0.2871
     16 H          62.6212   79.8959   10.7294 H       1  UNL1        0.1512
     17 C          62.7545   80.1998   12.8709 C.3     1  UNL1        0.0923
     18 C          62.3960   81.2339   13.8966 C.3     1  UNL1        0.0324
     19 C          60.9554   80.8260   13.8043 C.3     1  UNL1        0.0031
     20 C          63.8365   81.6419   13.9889 C.3     1  UNL1        0.0031
     21 C          62.0374   82.2680   14.9223 C.3     1  UNL1        0.0667
     22 N          63.1101   82.8926   15.7645 N.3     1  UNL1       -0.3211
     23 H          63.5206   82.1841   16.3727 H       1  UNL1        0.1189
     24 H          62.7058   83.6363   16.3335 H       1  UNL1        0.1189
     25 C          64.2697   87.5579   13.6160 C.3     1  UNL1        0.0047
     26 C          63.3038   86.5519   13.0634 C.3     1  UNL1        0.0241
     27 C          62.9854   85.3110   13.8434 C.3     1  UNL1        0.0047
     28 N          62.3643   89.6086   13.3351 N.pl3   1  UNL1       -0.2949
     29 H          61.9447   89.1411   14.0931 H       1  UNL1        0.1537
     30 C          63.5217   90.5330   13.5718 C.ar    1  UNL1        0.0775
     31 C          64.1137   91.3017   12.4278 C.ar    1  UNL1        0.0237
     32 C          65.2710   92.2261   12.6645 C.ar    1  UNL1        0.0821
     33 C          65.8363   92.3819   14.0452 C.ar    1  UNL1        0.1468
     34 F          66.9937   93.3064   14.2818 F       1  UNL1       -0.2039
     35 C          65.2443   91.6132   15.1891 C.ar    1  UNL1        0.0607
     36 C          64.0870   90.6888   14.9524 C.ar    1  UNL1        0.1557
     37 F          63.4950   89.9201   16.0964 F       1  UNL1       -0.2028
     38 C          65.8631   92.9949   11.5205 C.2     1  UNL1        0.2480
     39 O          66.5242   92.2652   10.3889 O.2     1  UNL1       -0.2701
     40 N          65.7941   94.4932   11.5083 N.am    1  UNL1       -0.3024
     41 H          65.3602   94.9721   12.2510 H       1  UNL1        0.1497
     42 C          66.3861   95.2619   10.3644 C.3     1  UNL1        0.0720
     43 C          66.4021   96.4782    9.4866 C.3     1  UNL1        0.0213
     44 C          67.3954   95.3772    9.2608 C.3     1  UNL1        0.0213
@<TRIPOS>BOND
     1    25    26    1
     2    26    27    1
     3    26     1    1
     4     1     2   ar
     5     2    10    1
     6    10    11   ar
     7    11    12   ar
     8    12    13   ar
     9    13    15    1
    10    15    17    1
    11    17    18    1
    12    18    19    1
    13    18    20    1
    14    18    21    1
    15    21    22    1
    16    13    14   ar
    17     2     3   ar
    18     3     4   ar
    19     4     5   ar
    20     5     6   ar
    21     6     7   ar
    22     7     8   ar
    23     8    28    1
    24    28    30    1
    25    30    31   ar
    26    31    32   ar
    27    32    38    1
    28    38    39    2
    29    38    40   am
    30    40    42    1
    31    42    43    1
    32    43    44    1
    33    32    33   ar
    34    33    34    1
    35    33    35   ar
    36    35    36   ar
    37    36    37    1
    38     8     9   ar
    39     9     1   ar
    40    14    10   ar
    41     9     4   ar
    42    36    30   ar
    43    44    42    1
    44    15    16    1
    45    22    23    1
    46    22    24    1
    47    28    29    1
    48    40    41    1
