@<TRIPOS>MOLECULE
*****
 43 46 0 0 0
SMALL
GASTEIGER

@<TRIPOS>ATOM
      1 N          61.6382   89.0862   10.5397 N.pl3   1  UNL1       -0.3025
      2 C          61.1486   89.3449   11.9338 C.3     1  UNL1        0.1124
      3 C          62.0160   90.0857   12.9079 C.3     1  UNL1        0.1149
      4 N          63.3730   90.5678   12.4880 N.am    1  UNL1       -0.2747
      5 C          64.2403   91.3085   13.4621 C.2     1  UNL1        0.2442
      6 O          63.7507   91.5672   14.8562 O.2     1  UNL1       -0.2731
      7 C          63.8625   90.3091   11.0939 C.3     1  UNL1        0.1149
      8 C          62.9951   89.5683   10.1198 C.3     1  UNL1        0.1124
      9 C          60.8812   86.8543    9.4464 C.ar    1  UNL1        0.0075
     10 C          60.0138   86.1135    8.4723 C.ar    1  UNL1       -0.0016
     11 C          59.0360   86.8640    7.6174 C.ar    1  UNL1        0.0021
     12 C          58.9256   88.3551    7.7366 C.ar    1  UNL1        0.0309
     13 C          59.7930   89.0958    8.7107 C.ar    1  UNL1        0.1530
     14 F          59.6827   90.5871    8.8300 F       1  UNL1       -0.2029
     15 C          60.7708   88.3454    9.5656 C.ar    1  UNL1        0.0730
     16 C          61.8589   86.1038   10.3013 C.3     1  UNL1        0.0781
     17 N          61.5015   85.7484   11.7140 N.3     1  UNL1       -0.2939
     18 H          60.5322   85.4312   11.7016 H       1  UNL1        0.1235
     19 C          62.2896   84.7034   12.4468 C.3     1  UNL1        0.0858
     20 C          63.5267   85.0896   13.2022 C.3     1  UNL1        0.0825
     21 N          63.4318   85.4796   14.6475 N.3     1  UNL1       -0.3200
     22 H          62.9027   86.3475   14.7315 H       1  UNL1        0.1189
     23 H          64.3695   85.6151   15.0254 H       1  UNL1        0.1189
     24 C          63.1941   85.7089    9.7434 C.3     1  UNL1        0.0203
     25 C          62.9315   84.5028    7.4573 C.3     1  UNL1        0.0001
     26 C          63.3205   84.4711    8.9057 C.3     1  UNL1        0.0017
     27 C          63.8359   83.2016    9.5162 C.3     1  UNL1        0.0001
     28 C          65.5972   91.7906   13.0422 C.3     1  UNL1        0.1564
     29 N          66.5645   92.2974   14.0705 N.am    1  UNL1       -0.2727
     30 C          66.2063   92.9842   15.3550 C.3     1  UNL1        0.0943
     31 C          67.4802   93.3178   16.0733 C.3     1  UNL1        0.0311
     32 C          68.6258   92.8371   15.2327 C.3     1  UNL1        0.0870
     33 C          68.0599   92.2065   13.9948 C.2     1  UNL1        0.2260
     34 O          68.8504   91.5928   12.8777 O.2     1  UNL1       -0.2749
     35 C          65.9869   91.7658   11.5938 C.3     1  UNL1        0.0564
     36 C          66.3786   93.0370   10.9007 C.ar    1  UNL1       -0.0094
     37 C          65.6894   94.3234   11.2475 C.ar    1  UNL1       -0.0025
     38 C          66.0811   95.5947   10.5544 C.ar    1  UNL1        0.0111
     39 C          67.1620   95.5796    9.5145 C.ar    1  UNL1        0.0585
     40 CL         67.5538   96.8509    8.8213 Cl      1  UNL1       -0.0822
     41 C          67.8512   94.2932    9.1677 C.ar    1  UNL1        0.0225
     42 C          67.4595   93.0220    9.8608 C.ar    1  UNL1        0.0546
     43 CL         68.1487   91.7356    9.5141 Cl      1  UNL1       -0.0825
@<TRIPOS>BOND
     1    25    26    1
     2    26    27    1
     3    26    24    1
     4    16    24    1
     5    16    17    1
     6    17    19    1
     7    19    20    1
     8    20    21    1
     9    16     9    1
    10     9    10   ar
    11    10    11   ar
    12    11    12   ar
    13    12    13   ar
    14    13    14    1
    15    13    15   ar
    16    15     1    1
    17     1     2    1
    18     2     3    1
    19     3     4    1
    20     4     5   am
    21     5     6    2
    22     5    28    1
    23    28    35    1
    24    35    36    1
    25    36    37   ar
    26    37    38   ar
    27    38    39   ar
    28    39    40    1
    29    39    41   ar
    30    41    42   ar
    31    42    43    1
    32    28    29    1
    33    29    30    1
    34    30    31    1
    35    31    32    1
    36    32    33    1
    37    33    34    2
    38     4     7    1
    39     7     8    1
    40    15     9   ar
    41     8     1    1
    42    42    36   ar
    43    33    29   am
    44    17    18    1
    45    21    22    1
    46    21    23    1
@<TRIPOS>MOLECULE
*****
 43 46 0 0 0
SMALL
GASTEIGER

@<TRIPOS>ATOM
      1 N          61.5524   86.4113    9.5886 N.pl3   1  UNL1       -0.3025
      2 C          62.6788   85.7394    8.8607 C.3     1  UNL1        0.1124
      3 C          63.5185   84.7132    9.5618 C.3     1  UNL1        0.1149
      4 N          63.2319   84.3589   10.9910 N.am    1  UNL1       -0.2747
      5 C          64.0717   83.3327   11.6921 C.2     1  UNL1        0.2442
      6 O          65.1980   82.6607   10.9642 O.2     1  UNL1       -0.2731
      7 C          62.1056   85.0308   11.7189 C.3     1  UNL1        0.1149
      8 C          61.2659   86.0571   11.0176 C.3     1  UNL1        0.1124
      9 C          60.6701   88.8475    9.3974 C.ar    1  UNL1        0.0075
     10 C          59.8304   89.8737    8.6962 C.ar    1  UNL1       -0.0016
     11 C          59.0332   89.4899    7.4848 C.ar    1  UNL1        0.0021
     12 C          59.0758   88.0800    6.9748 C.ar    1  UNL1        0.0309
     13 C          59.9156   87.0539    7.6760 C.ar    1  UNL1        0.1530
     14 F          59.9582   85.6438    7.1659 F       1  UNL1       -0.2029
     15 C          60.7127   87.4376    8.8873 C.ar    1  UNL1        0.0730
     16 C          61.4672   89.2313   10.6087 C.3     1  UNL1        0.0781
     17 N          60.8113   89.2691   11.9571 N.3     1  UNL1       -0.2939
     18 H          61.2738   90.0064   12.4890 H       1  UNL1        0.1235
     19 C          59.3359   89.5164   12.0668 C.3     1  UNL1        0.0858
     20 C          58.5619   88.9389   13.2147 C.3     1  UNL1        0.0825
     21 N          57.1179   88.5736   13.0373 N.3     1  UNL1       -0.3200
     22 H          56.5714   89.4186   12.8708 H       1  UNL1        0.1189
     23 H          56.7786   88.1097   13.8799 H       1  UNL1        0.1189
     24 C          62.9203   89.5773   10.4717 C.3     1  UNL1        0.0203
     25 C          63.5939   90.6766   12.7273 C.3     1  UNL1        0.0001
     26 C          63.4899   90.7380   11.2321 C.3     1  UNL1        0.0017
     27 C          63.9555   91.9600   10.4975 C.3     1  UNL1        0.0001
     28 C          63.7851   82.9784   13.1212 C.3     1  UNL1        0.1564
     29 N          62.6751   82.0244   13.4493 N.am    1  UNL1       -0.2727
     30 C          61.6300   82.2180   14.5078 C.3     1  UNL1        0.0943
     31 C          60.7243   81.0225   14.4892 C.3     1  UNL1        0.0311
     32 C          61.2095   80.0899   13.4193 C.3     1  UNL1        0.0870
     33 C          62.4152   80.7091   12.7765 C.2     1  UNL1        0.2260
     34 O          63.2196   80.1170   11.6576 O.2     1  UNL1       -0.2749
     35 C          64.6085   83.5782   14.2223 C.3     1  UNL1        0.0564
     36 C          64.2538   84.9270   14.7746 C.ar    1  UNL1       -0.0094
     37 C          64.7559   86.1692   14.1002 C.ar    1  UNL1       -0.0025
     38 C          64.4012   87.5180   14.6525 C.ar    1  UNL1        0.0111
     39 C          63.5444   87.6245   15.8792 C.ar    1  UNL1        0.0585
     40 CL         63.1897   88.9733   16.4314 Cl      1  UNL1       -0.0822
     41 C          63.0424   86.3822   16.5535 C.ar    1  UNL1        0.0225
     42 C          63.3971   85.0335   16.0012 C.ar    1  UNL1        0.0546
     43 CL         62.8951   83.7912   16.6755 Cl      1  UNL1       -0.0825
@<TRIPOS>BOND
     1    25    26    1
     2    26    27    1
     3    26    24    1
     4    16    24    1
     5    16    17    1
     6    17    19    1
     7    19    20    1
     8    20    21    1
     9    16     9    1
    10     9    10   ar
    11    10    11   ar
    12    11    12   ar
    13    12    13   ar
    14    13    14    1
    15    13    15   ar
    16    15     1    1
    17     1     2    1
    18     2     3    1
    19     3     4    1
    20     4     5   am
    21     5     6    2
    22     5    28    1
    23    28    35    1
    24    35    36    1
    25    36    37   ar
    26    37    38   ar
    27    38    39   ar
    28    39    40    1
    29    39    41   ar
    30    41    42   ar
    31    42    43    1
    32    28    29    1
    33    29    30    1
    34    30    31    1
    35    31    32    1
    36    32    33    1
    37    33    34    2
    38     4     7    1
    39     7     8    1
    40    15     9   ar
    41     8     1    1
    42    42    36   ar
    43    33    29   am
    44    17    18    1
    45    21    22    1
    46    21    23    1
@<TRIPOS>MOLECULE
*****
 43 46 0 0 0
SMALL
GASTEIGER

@<TRIPOS>ATOM
      1 N          64.2382   91.0360   12.9040 N.pl3   1  UNL1       -0.3025
      2 C          63.3338   91.7154   11.9189 C.3     1  UNL1        0.1124
      3 C          62.4605   90.8974   11.0144 C.3     1  UNL1        0.1149
      4 N          62.4916   89.3998   11.0950 N.am    1  UNL1       -0.2747
      5 C          61.6183   88.5818   10.1905 C.2     1  UNL1        0.2442
      6 O          60.7140   89.2612    9.2054 O.2     1  UNL1       -0.2731
      7 C          63.3959   88.7204   12.0801 C.3     1  UNL1        0.1149
      8 C          64.2693   89.5385   12.9847 C.3     1  UNL1        0.1124
      9 C          65.9850   92.9304   13.2354 C.ar    1  UNL1        0.0075
     10 C          66.8583   93.7485   14.1400 C.ar    1  UNL1       -0.0016
     11 C          66.8580   93.4902   15.6176 C.ar    1  UNL1        0.0021
     12 C          65.9844   92.4140   16.1907 C.ar    1  UNL1        0.0309
     13 C          65.1112   91.5959   15.2861 C.ar    1  UNL1        0.1530
     14 F          64.2376   90.5195   15.8592 F       1  UNL1       -0.2029
     15 C          65.1115   91.8541   13.8085 C.ar    1  UNL1        0.0730
     16 C          65.9853   93.1887   11.7578 C.3     1  UNL1        0.0781
     17 N          65.3948   94.4575   11.2181 N.3     1  UNL1       -0.2939
     18 H          64.6741   94.7507   11.8777 H       1  UNL1        0.1235
     19 C          66.2723   95.6499   10.9770 C.3     1  UNL1        0.0858
     20 C          67.0557   95.7592    9.7025 C.3     1  UNL1        0.0825
     21 N          66.5472   95.1066    8.4513 N.3     1  UNL1       -0.3200
     22 H          66.5538   94.0934    8.5694 H       1  UNL1        0.1189
     23 H          67.1474   95.3613    7.6669 H       1  UNL1        0.1189
     24 C          66.5761   92.1781   10.8200 C.3     1  UNL1        0.0203
     25 C          68.8508   91.5193   11.8885 C.3     1  UNL1        0.0001
     26 C          68.0653   92.0307   10.7174 C.3     1  UNL1        0.0017
     27 C          68.7690   92.3947    9.4437 C.3     1  UNL1        0.0001
     28 C          61.6494   87.0843   10.2712 C.3     1  UNL1        0.1564
     29 N          61.7633   86.2679    9.0180 N.am    1  UNL1       -0.2727
     30 C          63.0054   85.5949    8.5139 C.3     1  UNL1        0.0943
     31 C          62.6648   84.8922    7.2332 C.3     1  UNL1        0.0311
     32 C          61.2121   85.1310    6.9457 C.3     1  UNL1        0.0870
     33 C          60.6549   85.9812    8.0487 C.2     1  UNL1        0.2260
     34 O          59.2382   86.4606    8.1625 O.2     1  UNL1       -0.2749
     35 C          61.5666   86.4032   11.6051 C.3     1  UNL1        0.0564
     36 C          62.3626   85.1581   11.8620 C.ar    1  UNL1       -0.0094
     37 C          62.1535   83.9441   11.0060 C.ar    1  UNL1       -0.0025
     38 C          62.9495   82.6990   11.2629 C.ar    1  UNL1        0.0111
     39 C          63.9547   82.6678   12.3760 C.ar    1  UNL1        0.0585
     40 CL         64.7507   81.4227   12.6329 Cl      1  UNL1       -0.0822
     41 C          64.1638   83.8817   13.2320 C.ar    1  UNL1        0.0225
     42 C          63.3678   85.1268   12.9750 C.ar    1  UNL1        0.0546
     43 CL         63.5769   86.3407   13.8310 Cl      1  UNL1       -0.0825
@<TRIPOS>BOND
     1    25    26    1
     2    26    27    1
     3    26    24    1
     4    16    24    1
     5    16    17    1
     6    17    19    1
     7    19    20    1
     8    20    21    1
     9    16     9    1
    10     9    10   ar
    11    10    11   ar
    12    11    12   ar
    13    12    13   ar
    14    13    14    1
    15    13    15   ar
    16    15     1    1
    17     1     2    1
    18     2     3    1
    19     3     4    1
    20     4     5   am
    21     5     6    2
    22     5    28    1
    23    28    35    1
    24    35    36    1
    25    36    37   ar
    26    37    38   ar
    27    38    39   ar
    28    39    40    1
    29    39    41   ar
    30    41    42   ar
    31    42    43    1
    32    28    29    1
    33    29    30    1
    34    30    31    1
    35    31    32    1
    36    32    33    1
    37    33    34    2
    38     4     7    1
    39     7     8    1
    40    15     9   ar
    41     8     1    1
    42    42    36   ar
    43    33    29   am
    44    17    18    1
    45    21    22    1
    46    21    23    1
@<TRIPOS>MOLECULE
*****
 43 46 0 0 0
SMALL
GASTEIGER

@<TRIPOS>ATOM
      1 N          61.5483   86.3640    9.5098 N.pl3   1  UNL1       -0.3025
      2 C          62.7110   85.7148    8.8193 C.3     1  UNL1        0.1124
      3 C          63.5663   84.7283    9.5577 C.3     1  UNL1        0.1149
      4 N          63.2589   84.3909   10.9867 N.am    1  UNL1       -0.2747
      5 C          64.1141   83.4044   11.7250 C.2     1  UNL1        0.2442
      6 O          65.2768   82.7552   11.0346 O.2     1  UNL1       -0.2731
      7 C          62.0962   85.0401   11.6771 C.3     1  UNL1        0.1149
      8 C          61.2409   86.0267   10.9386 C.3     1  UNL1        0.1124
      9 C          60.6740   88.7899    9.1930 C.ar    1  UNL1        0.0075
     10 C          59.8187   89.7764    8.4545 C.ar    1  UNL1       -0.0016
     11 C          58.9826   89.3235    7.2944 C.ar    1  UNL1        0.0021
     12 C          59.0017   87.8842    6.8728 C.ar    1  UNL1        0.0309
     13 C          59.8569   86.8977    7.6112 C.ar    1  UNL1        0.1530
     14 F          59.8761   85.4582    7.1896 F       1  UNL1       -0.2029
     15 C          60.6931   87.3506    8.7713 C.ar    1  UNL1        0.0730
     16 C          61.5101   89.2428   10.3530 C.3     1  UNL1        0.0781
     17 N          62.8880   89.7865   10.1174 N.3     1  UNL1       -0.2939
     18 H          63.0230   89.8187    9.1069 H       1  UNL1        0.1235
     19 C          63.2614   91.1392   10.6474 C.3     1  UNL1        0.0858
     20 C          64.0524   91.2553   11.9166 C.3     1  UNL1        0.0825
     21 N          63.3443   91.3480   13.2357 N.3     1  UNL1       -0.3200
     22 H          62.8212   92.2225   13.2801 H       1  UNL1        0.1189
     23 H          64.0288   91.3226   13.9915 H       1  UNL1        0.1189
     24 C          60.9682   89.1520   11.7488 C.3     1  UNL1        0.0203
     25 C          59.1964   91.0437   11.5687 C.3     1  UNL1        0.0001
     26 C          59.6007   89.6847   12.0586 C.3     1  UNL1        0.0017
     27 C          58.6374   88.8585   12.8581 C.3     1  UNL1        0.0001
     28 C          63.8067   83.0671   13.1539 C.3     1  UNL1        0.1564
     29 N          62.6922   82.1166   13.4770 N.am    1  UNL1       -0.2727
     30 C          61.6501   82.3081   14.5388 C.3     1  UNL1        0.0943
     31 C          60.7379   81.1175   14.5131 C.3     1  UNL1        0.0311
     32 C          61.2163   80.1902   13.4355 C.3     1  UNL1        0.0870
     33 C          62.4242   80.8076   12.7952 C.2     1  UNL1        0.2260
     34 O          63.2235   80.2194   11.6705 O.2     1  UNL1       -0.2749
     35 C          64.6138   83.6802   14.2597 C.3     1  UNL1        0.0564
     36 C          64.2475   85.0330   14.7943 C.ar    1  UNL1       -0.0094
     37 C          64.7274   86.2707   14.0958 C.ar    1  UNL1       -0.0025
     38 C          64.3611   87.6234   14.6305 C.ar    1  UNL1        0.0111
     39 C          63.5148   87.7385   15.8636 C.ar    1  UNL1        0.0585
     40 CL         63.1484   89.0912   16.3983 Cl      1  UNL1       -0.0822
     41 C          63.0349   86.5008   16.5621 C.ar    1  UNL1        0.0225
     42 C          63.4012   85.1481   16.0274 C.ar    1  UNL1        0.0546
     43 CL         62.9213   83.9104   16.7258 Cl      1  UNL1       -0.0825
@<TRIPOS>BOND
     1    25    26    1
     2    26    27    1
     3    26    24    1
     4    16    24    1
     5    16    17    1
     6    17    19    1
     7    19    20    1
     8    20    21    1
     9    16     9    1
    10     9    10   ar
    11    10    11   ar
    12    11    12   ar
    13    12    13   ar
    14    13    14    1
    15    13    15   ar
    16    15     1    1
    17     1     2    1
    18     2     3    1
    19     3     4    1
    20     4     5   am
    21     5     6    2
    22     5    28    1
    23    28    35    1
    24    35    36    1
    25    36    37   ar
    26    37    38   ar
    27    38    39   ar
    28    39    40    1
    29    39    41   ar
    30    41    42   ar
    31    42    43    1
    32    28    29    1
    33    29    30    1
    34    30    31    1
    35    31    32    1
    36    32    33    1
    37    33    34    2
    38     4     7    1
    39     7     8    1
    40    15     9   ar
    41     8     1    1
    42    42    36   ar
    43    33    29   am
    44    17    18    1
    45    21    22    1
    46    21    23    1
@<TRIPOS>MOLECULE
*****
 43 46 0 0 0
SMALL
GASTEIGER

@<TRIPOS>ATOM
      1 N          63.4521   85.4975   13.8827 N.pl3   1  UNL1       -0.3025
      2 C          63.0438   85.7362   15.3062 C.3     1  UNL1        0.1124
      3 C          63.1933   87.1009   15.9105 C.3     1  UNL1        0.1149
      4 N          63.7511   88.2269   15.0914 N.am    1  UNL1       -0.2747
      5 C          63.9006   89.5916   15.6958 C.2     1  UNL1        0.2442
      6 O          63.4923   89.8303   17.1193 O.2     1  UNL1       -0.2731
      7 C          64.1594   87.9882   13.6679 C.3     1  UNL1        0.1149
      8 C          64.0099   86.6235   13.0636 C.3     1  UNL1        0.1124
      9 C          62.7071   83.9795   11.9102 C.ar    1  UNL1        0.0075
     10 C          62.5576   82.6149   11.3059 C.ar    1  UNL1       -0.0016
     11 C          63.0035   81.4034   12.0697 C.ar    1  UNL1        0.0021
     12 C          63.5990   81.5566   13.4379 C.ar    1  UNL1        0.0309
     13 C          63.7485   82.9213   14.0422 C.ar    1  UNL1        0.1530
     14 F          64.3440   83.0746   15.4104 F       1  UNL1       -0.2029
     15 C          63.3026   84.1328   13.2783 C.ar    1  UNL1        0.0730
     16 C          62.2611   85.1910   11.1463 C.3     1  UNL1        0.0781
     17 N          61.1702   86.0630   11.6934 N.3     1  UNL1       -0.2939
     18 H          61.1791   85.9450   12.7065 H       1  UNL1        0.1235
     19 C          61.1867   87.5395   11.4292 C.3     1  UNL1        0.0858
     20 C          59.8966   88.2841   11.2520 C.3     1  UNL1        0.0825
     21 N          59.0778   88.6617   12.4508 N.3     1  UNL1       -0.3200
     22 H          58.7268   87.8172   12.9024 H       1  UNL1        0.1189
     23 H          58.2920   89.2417   12.1567 H       1  UNL1        0.1189
     24 C          62.9061   85.5304    9.8353 C.3     1  UNL1        0.0203
     25 C          60.7133   85.9818    8.5170 C.3     1  UNL1        0.0001
     26 C          62.1132   85.4449    8.5649 C.3     1  UNL1        0.0017
     27 C          62.7200   84.8225    7.3425 C.3     1  UNL1        0.0001
     28 C          64.4584   90.7176   14.8767 C.3     1  UNL1        0.1564
     29 N          65.7318   91.3906   15.2956 N.am    1  UNL1       -0.2727
     30 C          67.0960   91.1263   14.7306 C.3     1  UNL1        0.0943
     31 C          68.0719   92.0184   15.4388 C.3     1  UNL1        0.0311
     32 C          67.3109   92.8342   16.4415 C.3     1  UNL1        0.0870
     33 C          65.8646   92.4462   16.3530 C.2     1  UNL1        0.2260
     34 O          64.7474   93.0140   17.1772 O.2     1  UNL1       -0.2749
     35 C          63.7428   91.1705   13.6386 C.3     1  UNL1        0.0564
     36 C          64.4923   91.9010   12.5640 C.ar    1  UNL1       -0.0094
     37 C          65.5214   92.9281   12.9330 C.ar    1  UNL1       -0.0025
     38 C          66.2709   93.6586   11.8584 C.ar    1  UNL1        0.0111
     39 C          65.9912   93.3620   10.4148 C.ar    1  UNL1        0.0585
     40 CL         66.7407   94.0924    9.3403 Cl      1  UNL1       -0.0822
     41 C          64.9622   92.3349   10.0459 C.ar    1  UNL1        0.0225
     42 C          64.2127   91.6044   11.1205 C.ar    1  UNL1        0.0546
     43 CL         63.1837   90.5773   10.7515 Cl      1  UNL1       -0.0825
@<TRIPOS>BOND
     1    25    26    1
     2    26    27    1
     3    26    24    1
     4    16    24    1
     5    16    17    1
     6    17    19    1
     7    19    20    1
     8    20    21    1
     9    16     9    1
    10     9    10   ar
    11    10    11   ar
    12    11    12   ar
    13    12    13   ar
    14    13    14    1
    15    13    15   ar
    16    15     1    1
    17     1     2    1
    18     2     3    1
    19     3     4    1
    20     4     5   am
    21     5     6    2
    22     5    28    1
    23    28    35    1
    24    35    36    1
    25    36    37   ar
    26    37    38   ar
    27    38    39   ar
    28    39    40    1
    29    39    41   ar
    30    41    42   ar
    31    42    43    1
    32    28    29    1
    33    29    30    1
    34    30    31    1
    35    31    32    1
    36    32    33    1
    37    33    34    2
    38     4     7    1
    39     7     8    1
    40    15     9   ar
    41     8     1    1
    42    42    36   ar
    43    33    29   am
    44    17    18    1
    45    21    22    1
    46    21    23    1
@<TRIPOS>MOLECULE
*****
 43 46 0 0 0
SMALL
GASTEIGER

@<TRIPOS>ATOM
      1 N          61.6243   88.9444   10.4901 N.pl3   1  UNL1       -0.3025
      2 C          61.2361   88.8425   11.9354 C.3     1  UNL1        0.1124
      3 C          61.9842   89.6296   12.9702 C.3     1  UNL1        0.1149
      4 N          63.1204   90.5188   12.5597 N.am    1  UNL1       -0.2747
      5 C          63.8684   91.3059   13.5945 C.2     1  UNL1        0.2442
      6 O          63.4803   91.2040   15.0398 O.2     1  UNL1       -0.2731
      7 C          63.5086   90.6207   11.1143 C.3     1  UNL1        0.1149
      8 C          62.7605   89.8335   10.0795 C.3     1  UNL1        0.1124
      9 C          61.0704   86.6732    9.3566 C.ar    1  UNL1        0.0075
     10 C          60.3223   85.8861    8.3219 C.ar    1  UNL1       -0.0016
     11 C          59.3801   86.5830    7.3857 C.ar    1  UNL1        0.0021
     12 C          59.1859   88.0671    7.4843 C.ar    1  UNL1        0.0309
     13 C          59.9340   88.8542    8.5191 C.ar    1  UNL1        0.1530
     14 F          59.7398   90.3384    8.6177 F       1  UNL1       -0.2029
     15 C          60.8762   88.1572    9.4552 C.ar    1  UNL1        0.0730
     16 C          62.0127   85.9762   10.2928 C.3     1  UNL1        0.0781
     17 N          63.3457   85.4992    9.7976 N.3     1  UNL1       -0.2939
     18 H          63.9801   85.5172   10.5961 H       1  UNL1        0.1235
     19 C          63.4721   84.1405    9.1748 C.3     1  UNL1        0.0858
     20 C          63.8831   82.9664   10.0131 C.3     1  UNL1        0.0825
     21 N          65.0507   83.0840   10.9474 N.3     1  UNL1       -0.3200
     22 H          65.9060   83.2161   10.4076 H       1  UNL1        0.1189
     23 H          65.1279   82.2327   11.5039 H       1  UNL1        0.1189
     24 C          61.6218   85.7563   11.7241 C.3     1  UNL1        0.0203
     25 C          63.6868   86.1341   13.2549 C.3     1  UNL1        0.0001
     26 C          62.6273   85.2268   12.7033 C.3     1  UNL1        0.0017
     27 C          62.5732   83.7900   13.1308 C.3     1  UNL1        0.0001
     28 C          65.0046   92.1950   13.1839 C.3     1  UNL1        0.1564
     29 N          66.1910   92.3610   14.0867 N.am    1  UNL1       -0.2727
     30 C          66.8707   91.2696   14.8591 C.3     1  UNL1        0.0943
     31 C          68.0058   91.8817   15.6253 C.3     1  UNL1        0.0311
     32 C          68.0276   93.3514   15.3263 C.3     1  UNL1        0.0870
     33 C          66.9060   93.6478   14.3754 C.2     1  UNL1        0.2260
     34 O          66.5601   94.9942   13.8121 O.2     1  UNL1       -0.2749
     35 C          64.9545   92.9181   11.8706 C.3     1  UNL1        0.0564
     36 C          66.1265   92.8585   10.9364 C.ar    1  UNL1       -0.0094
     37 C          66.9876   91.6310   10.8909 C.ar    1  UNL1       -0.0025
     38 C          68.1597   91.5714    9.9567 C.ar    1  UNL1        0.0111
     39 C          68.4707   92.7393    9.0681 C.ar    1  UNL1        0.0585
     40 CL         69.6427   92.6797    8.1339 Cl      1  UNL1       -0.0822
     41 C          67.6096   93.9666    9.1136 C.ar    1  UNL1        0.0225
     42 C          66.4375   94.0262   10.0478 C.ar    1  UNL1        0.0546
     43 CL         65.5764   95.2535   10.0934 Cl      1  UNL1       -0.0825
@<TRIPOS>BOND
     1    25    26    1
     2    26    27    1
     3    26    24    1
     4    16    24    1
     5    16    17    1
     6    17    19    1
     7    19    20    1
     8    20    21    1
     9    16     9    1
    10     9    10   ar
    11    10    11   ar
    12    11    12   ar
    13    12    13   ar
    14    13    14    1
    15    13    15   ar
    16    15     1    1
    17     1     2    1
    18     2     3    1
    19     3     4    1
    20     4     5   am
    21     5     6    2
    22     5    28    1
    23    28    35    1
    24    35    36    1
    25    36    37   ar
    26    37    38   ar
    27    38    39   ar
    28    39    40    1
    29    39    41   ar
    30    41    42   ar
    31    42    43    1
    32    28    29    1
    33    29    30    1
    34    30    31    1
    35    31    32    1
    36    32    33    1
    37    33    34    2
    38     4     7    1
    39     7     8    1
    40    15     9   ar
    41     8     1    1
    42    42    36   ar
    43    33    29   am
    44    17    18    1
    45    21    22    1
    46    21    23    1
@<TRIPOS>MOLECULE
*****
 43 46 0 0 0
SMALL
GASTEIGER

@<TRIPOS>ATOM
      1 N          61.7024   89.2582   10.0433 N.pl3   1  UNL1       -0.3025
      2 C          62.4647   90.3934    9.4266 C.3     1  UNL1        0.1124
      3 C          63.4037   91.2092   10.2648 C.3     1  UNL1        0.1149
      4 N          63.5804   90.8899   11.7198 N.am    1  UNL1       -0.2747
      5 C          64.5194   91.7058   12.5580 C.2     1  UNL1        0.2442
      6 O          65.2817   92.8409   11.9413 O.2     1  UNL1       -0.2731
      7 C          62.8181   89.7548   12.3365 C.3     1  UNL1        0.1149
      8 C          61.8791   88.9389   11.4982 C.3     1  UNL1        0.1124
      9 C          60.8351   86.9445    9.2403 C.ar    1  UNL1        0.0075
     10 C          59.8961   86.1288    8.4020 C.ar    1  UNL1       -0.0016
     11 C          58.8853   86.8108    7.5285 C.ar    1  UNL1        0.0021
     12 C          58.8135   88.3087    7.4933 C.ar    1  UNL1        0.0309
     13 C          59.7525   89.1244    8.3315 C.ar    1  UNL1        0.1530
     14 F          59.6807   90.6224    8.2963 F       1  UNL1       -0.2029
     15 C          60.7633   88.4424    9.2050 C.ar    1  UNL1        0.0730
     16 C          61.8460   86.2625   10.1138 C.3     1  UNL1        0.0781
     17 N          61.5075   85.9354   11.5380 N.3     1  UNL1       -0.2939
     18 H          60.7642   85.2375   11.5112 H       1  UNL1        0.1235
     19 C          62.5669   85.4046   12.4578 C.3     1  UNL1        0.0858
     20 C          62.6029   83.9437   12.7963 C.3     1  UNL1        0.0825
     21 N          63.9174   83.2607   13.0321 N.3     1  UNL1       -0.3200
     22 H          64.4545   83.2484   12.1651 H       1  UNL1        0.1189
     23 H          63.7522   82.3036   13.3435 H       1  UNL1        0.1189
     24 C          63.1953   85.9075    9.5631 C.3     1  UNL1        0.0203
     25 C          63.9914   83.4356    9.4840 C.3     1  UNL1        0.0001
     26 C          63.3827   84.6268    8.8051 C.3     1  UNL1        0.0017
     27 C          62.9614   84.5371    7.3683 C.3     1  UNL1        0.0001
     28 C          64.6961   91.3865   14.0129 C.3     1  UNL1        0.1564
     29 N          65.9612   91.7767   14.7181 N.am    1  UNL1       -0.2727
     30 C          67.3541   91.6104   14.1870 C.3     1  UNL1        0.0943
     31 C          68.3092   92.1327   15.2189 C.3     1  UNL1        0.0311
     32 C          67.5066   92.6219   16.3879 C.3     1  UNL1        0.0870
     33 C          66.0554   92.4019   16.0785 C.2     1  UNL1        0.2260
     34 O          64.9012   92.7464   16.9723 O.2     1  UNL1       -0.2749
     35 C          63.6078   90.6769   14.7626 C.3     1  UNL1        0.0564
     36 C          63.7573   89.2242   15.1052 C.ar    1  UNL1       -0.0094
     37 C          64.4700   88.3007   14.1622 C.ar    1  UNL1       -0.0025
     38 C          64.6195   86.8480   14.5048 C.ar    1  UNL1        0.0111
     39 C          64.0563   86.3189   15.7905 C.ar    1  UNL1        0.0585
     40 CL         64.2058   84.8662   16.1332 Cl      1  UNL1       -0.0822
     41 C          63.3436   87.2424   16.7335 C.ar    1  UNL1        0.0225
     42 C          63.1941   88.6950   16.3908 C.ar    1  UNL1        0.0546
     43 CL         62.4815   89.6185   17.3338 Cl      1  UNL1       -0.0825
@<TRIPOS>BOND
     1    25    26    1
     2    26    27    1
     3    26    24    1
     4    16    24    1
     5    16    17    1
     6    17    19    1
     7    19    20    1
     8    20    21    1
     9    16     9    1
    10     9    10   ar
    11    10    11   ar
    12    11    12   ar
    13    12    13   ar
    14    13    14    1
    15    13    15   ar
    16    15     1    1
    17     1     2    1
    18     2     3    1
    19     3     4    1
    20     4     5   am
    21     5     6    2
    22     5    28    1
    23    28    35    1
    24    35    36    1
    25    36    37   ar
    26    37    38   ar
    27    38    39   ar
    28    39    40    1
    29    39    41   ar
    30    41    42   ar
    31    42    43    1
    32    28    29    1
    33    29    30    1
    34    30    31    1
    35    31    32    1
    36    32    33    1
    37    33    34    2
    38     4     7    1
    39     7     8    1
    40    15     9   ar
    41     8     1    1
    42    42    36   ar
    43    33    29   am
    44    17    18    1
    45    21    22    1
    46    21    23    1
@<TRIPOS>MOLECULE
*****
 43 46 0 0 0
SMALL
GASTEIGER

@<TRIPOS>ATOM
      1 N          61.5799   86.4361    9.4412 N.pl3   1  UNL1       -0.3025
      2 C          62.5193   85.6513    8.5742 C.3     1  UNL1        0.1124
      3 C          63.3401   84.5449    9.1674 C.3     1  UNL1        0.1149
      4 N          63.2216   84.2232   10.6278 N.am    1  UNL1       -0.2747
      5 C          64.0425   83.1168   11.2210 C.2     1  UNL1        0.2442
      6 O          64.9818   82.3320   10.3540 O.2     1  UNL1       -0.2731
      7 C          62.2823   85.0080   11.4948 C.3     1  UNL1        0.1149
      8 C          61.4614   86.1145   10.9015 C.3     1  UNL1        0.1124
      9 C          60.9628   88.9563    9.3062 C.ar    1  UNL1        0.0075
     10 C          60.1420   90.0627    8.7129 C.ar    1  UNL1       -0.0016
     11 C          59.1174   89.7554    7.6613 C.ar    1  UNL1        0.0021
     12 C          58.9136   88.3418    7.2031 C.ar    1  UNL1        0.0309
     13 C          59.7345   87.2354    7.7964 C.ar    1  UNL1        0.1530
     14 F          59.5307   85.8216    7.3381 F       1  UNL1       -0.2029
     15 C          60.7591   87.5426    8.8479 C.ar    1  UNL1        0.0730
     16 C          61.9874   89.2635   10.3578 C.3     1  UNL1        0.0781
     17 N          63.2545   89.9747    9.9853 N.3     1  UNL1       -0.2939
     18 H          63.4510   89.7364    9.0132 H       1  UNL1        0.1235
     19 C          63.3343   91.4689   10.0894 C.3     1  UNL1        0.0858
     20 C          64.4639   92.1091   10.8406 C.3     1  UNL1        0.0825
     21 N          65.3355   93.1243   10.1625 N.3     1  UNL1       -0.3200
     22 H          65.8618   92.6744    9.4136 H       1  UNL1        0.1189
     23 H          65.9837   93.5235   10.8414 H       1  UNL1        0.1189
     24 C          61.7450   88.8596   11.7818 C.3     1  UNL1        0.0203
     25 C          63.7693   87.9632   13.1416 C.3     1  UNL1        0.0001
     26 C          62.8129   89.0714   12.8137 C.3     1  UNL1        0.0017
     27 C          62.9245   90.3912   13.5176 C.3     1  UNL1        0.0001
     28 C          63.9240   82.7951   12.6813 C.3     1  UNL1        0.1564
     29 N          62.9703   81.7321   13.1402 N.am    1  UNL1       -0.2727
     30 C          61.4981   81.6865   12.8567 C.3     1  UNL1        0.0943
     31 C          60.9393   80.4543   13.5044 C.3     1  UNL1        0.0311
     32 C          62.0662   79.7384   14.1882 C.3     1  UNL1        0.0870
     33 C          63.3215   80.5281   13.9631 C.2     1  UNL1        0.2260
     34 O          64.6879   80.1758   14.4715 O.2     1  UNL1       -0.2749
     35 C          64.7592   83.5365   13.6828 C.3     1  UNL1        0.0564
     36 C          64.0982   84.3676   14.7421 C.ar    1  UNL1       -0.0094
     37 C          62.7069   84.0371   15.1952 C.ar    1  UNL1       -0.0025
     38 C          62.0458   84.8682   16.2546 C.ar    1  UNL1        0.0111
     39 C          62.7761   86.0298   16.8609 C.ar    1  UNL1        0.0585
     40 CL         62.1150   86.8610   17.9203 Cl      1  UNL1       -0.0822
     41 C          64.1673   86.3602   16.4078 C.ar    1  UNL1        0.0225
     42 C          64.8283   85.5291   15.3484 C.ar    1  UNL1        0.0546
     43 CL         66.2195   85.8595   14.8954 Cl      1  UNL1       -0.0825
@<TRIPOS>BOND
     1    25    26    1
     2    26    27    1
     3    26    24    1
     4    16    24    1
     5    16    17    1
     6    17    19    1
     7    19    20    1
     8    20    21    1
     9    16     9    1
    10     9    10   ar
    11    10    11   ar
    12    11    12   ar
    13    12    13   ar
    14    13    14    1
    15    13    15   ar
    16    15     1    1
    17     1     2    1
    18     2     3    1
    19     3     4    1
    20     4     5   am
    21     5     6    2
    22     5    28    1
    23    28    35    1
    24    35    36    1
    25    36    37   ar
    26    37    38   ar
    27    38    39   ar
    28    39    40    1
    29    39    41   ar
    30    41    42   ar
    31    42    43    1
    32    28    29    1
    33    29    30    1
    34    30    31    1
    35    31    32    1
    36    32    33    1
    37    33    34    2
    38     4     7    1
    39     7     8    1
    40    15     9   ar
    41     8     1    1
    42    42    36   ar
    43    33    29   am
    44    17    18    1
    45    21    22    1
    46    21    23    1
@<TRIPOS>MOLECULE
*****
 43 46 0 0 0
SMALL
GASTEIGER

@<TRIPOS>ATOM
      1 N          63.4990   85.3498   14.0514 N.pl3   1  UNL1       -0.3025
      2 C          63.0143   85.6923   15.4291 C.3     1  UNL1        0.1124
      3 C          63.1514   87.0938   15.9455 C.3     1  UNL1        0.1149
      4 N          63.7731   88.1531   15.0843 N.am    1  UNL1       -0.2747
      5 C          63.9102   89.5546   15.6008 C.2     1  UNL1        0.2442
      6 O          63.4255   89.8971   16.9784 O.2     1  UNL1       -0.2731
      7 C          64.2578   87.8106   13.7067 C.3     1  UNL1        0.1149
      8 C          64.1207   86.4090   13.1903 C.3     1  UNL1        0.1124
      9 C          62.8921   83.7089   12.1307 C.ar    1  UNL1        0.0075
     10 C          62.7551   82.3073   11.6144 C.ar    1  UNL1       -0.0016
     11 C          63.0878   81.1450   12.5023 C.ar    1  UNL1        0.0021
     12 C          63.5576   81.3843   13.9065 C.ar    1  UNL1        0.0309
     13 C          63.6946   82.7859   14.4229 C.ar    1  UNL1        0.1530
     14 F          64.1644   83.0252   15.8272 F       1  UNL1       -0.2029
     15 C          63.3619   83.9482   13.5350 C.ar    1  UNL1        0.0730
     16 C          62.5594   84.8712   11.2428 C.3     1  UNL1        0.0781
     17 N          63.4044   85.1604   10.0378 N.3     1  UNL1       -0.2939
     18 H          64.3693   84.9576   10.2992 H       1  UNL1        0.1235
     19 C          63.1443   84.4391    8.7486 C.3     1  UNL1        0.0858
     20 C          62.7305   85.2083    7.5291 C.3     1  UNL1        0.0825
     21 N          61.9337   84.5342    6.4517 N.3     1  UNL1       -0.3200
     22 H          62.5012   83.8095    6.0121 H       1  UNL1        0.1189
     23 H          61.6587   85.2225    5.7510 H       1  UNL1        0.1189
     24 C          61.3816   85.7442   11.5600 C.3     1  UNL1        0.0203
     25 C          61.6710   88.2800   11.0740 C.3     1  UNL1        0.0001
     26 C          61.0887   86.9459   10.7114 C.3     1  UNL1        0.0017
     27 C          60.2137   86.8137    9.5004 C.3     1  UNL1        0.0001
     28 C          64.5319   90.6138   14.7396 C.3     1  UNL1        0.1564
     29 N          65.7759   91.3168   15.1960 N.am    1  UNL1       -0.2727
     30 C          67.1643   91.0747   14.6825 C.3     1  UNL1        0.0943
     31 C          68.0963   91.9937   15.4151 C.3     1  UNL1        0.0311
     32 C          67.2840   92.8037   16.3815 C.3     1  UNL1        0.0870
     33 C          65.8498   92.3854   16.2461 C.2     1  UNL1        0.2260
     34 O          64.6929   92.9386   17.0242 O.2     1  UNL1       -0.2749
     35 C          63.9097   90.9699   13.4220 C.3     1  UNL1        0.0564
     36 C          64.5984   91.9359   12.5041 C.ar    1  UNL1       -0.0094
     37 C          65.5448   92.9567   13.0628 C.ar    1  UNL1       -0.0025
     38 C          66.2336   93.9227   12.1449 C.ar    1  UNL1        0.0111
     39 C          65.9758   93.8678   10.6682 C.ar    1  UNL1        0.0585
     40 CL         66.6645   94.8337    9.7502 Cl      1  UNL1       -0.0822
     41 C          65.0294   92.8470   10.1095 C.ar    1  UNL1        0.0225
     42 C          64.3407   91.8810   11.0274 C.ar    1  UNL1        0.0546
     43 CL         63.3942   90.8602   10.4687 Cl      1  UNL1       -0.0825
@<TRIPOS>BOND
     1    25    26    1
     2    26    27    1
     3    26    24    1
     4    16    24    1
     5    16    17    1
     6    17    19    1
     7    19    20    1
     8    20    21    1
     9    16     9    1
    10     9    10   ar
    11    10    11   ar
    12    11    12   ar
    13    12    13   ar
    14    13    14    1
    15    13    15   ar
    16    15     1    1
    17     1     2    1
    18     2     3    1
    19     3     4    1
    20     4     5   am
    21     5     6    2
    22     5    28    1
    23    28    35    1
    24    35    36    1
    25    36    37   ar
    26    37    38   ar
    27    38    39   ar
    28    39    40    1
    29    39    41   ar
    30    41    42   ar
    31    42    43    1
    32    28    29    1
    33    29    30    1
    34    30    31    1
    35    31    32    1
    36    32    33    1
    37    33    34    2
    38     4     7    1
    39     7     8    1
    40    15     9   ar
    41     8     1    1
    42    42    36   ar
    43    33    29   am
    44    17    18    1
    45    21    22    1
    46    21    23    1
