@<TRIPOS>MOLECULE
*****
 32 35 0 0 0
SMALL
GASTEIGER

@<TRIPOS>ATOM
      1 C          59.2444   89.5593    6.8198 C.ar    1  UNL1        0.0180
      2 C          58.7011   88.1696    6.9725 C.ar    1  UNL1        0.0029
      3 C          59.3069   87.2334    7.9758 C.ar    1  UNL1        0.0189
      4 C          60.4561   87.6870    8.8264 C.ar    1  UNL1        0.0789
      5 C          60.9994   89.0768    8.6737 C.ar    1  UNL1        0.0670
      6 C          60.3936   90.0129    7.6704 C.ar    1  UNL1        0.0174
      7 N          61.0619   86.7509    9.8297 N.ar    1  UNL1       -0.2852
      8 C          61.9683   85.5958    9.5228 C.ar    1  UNL1        0.1023
      9 C          62.3342   84.9365   10.8195 C.ar    1  UNL1        0.1196
     10 N          61.6540   85.6841   11.9278 N.ar    1  UNL1       -0.2220
     11 C          60.8677   86.8055   11.3161 C.ar    1  UNL1        0.1829
     12 N          62.1486   89.5304    9.5244 N.am    1  UNL1       -0.2780
     13 C          61.8885   90.2060   10.8381 C.2     1  UNL1        0.2688
     14 O          60.4792   90.4279   11.3012 O.2     1  UNL1       -0.2681
     15 H          63.0736   89.3848    9.2204 H       1  UNL1        0.1553
     16 C          63.0377   90.6596   11.6887 C.ar    1  UNL1        0.1538
     17 C          63.2136   90.1031   13.0705 C.ar    1  UNL1        0.1225
     18 N          64.3628   90.5568   13.9211 N.ar    1  UNL1       -0.2405
     19 C          65.3361   91.5670   13.3899 C.ar    1  UNL1        0.1004
     20 C          65.1603   92.1235   12.0081 C.ar    1  UNL1        0.1181
     21 N          64.0111   91.6698   11.1575 N.ar    1  UNL1       -0.2361
     22 C          66.4853   92.0206   14.2405 C.ar    1  UNL1        0.0192
     23 C          67.8839   91.9702   13.7006 C.ar    1  UNL1        0.0015
     24 C          69.0330   92.4238   14.5512 C.ar    1  UNL1        0.0000
     25 C          68.7836   92.9279   15.9418 C.ar    1  UNL1        0.0000
     26 C          67.3851   92.9784   16.4817 C.ar    1  UNL1        0.0000
     27 C          66.2360   92.5248   15.6311 C.ar    1  UNL1        0.0015
     28 N          59.5150   91.4354    5.0430 N.2     1  UNL1       -0.0873
     29 C          58.6386   90.4954    5.8165 C.2     1  UNL1        0.0974
     30 C          57.1563   90.4917    5.5867 C.3     1  UNL1        0.0555
     31 C          59.7174   92.8371    2.8648 C.3     1  UNL1        0.2885
     32 O          58.9092   92.3715    4.0397 O.2     1  UNL1       -0.3734
@<TRIPOS>BOND
     1    31    32    1
     2    32    28    1
     3    28    29    2
     4    29    30    1
     5    29     1    1
     6     1     2   ar
     7     2     3   ar
     8     3     4   ar
     9     4     7    1
    10     7     8   ar
    11     8     9   ar
    12     9    10   ar
    13    10    11   ar
    14     4     5   ar
    15     5    12    1
    16    12    13   am
    17    13    14    2
    18    13    16    1
    19    16    17   ar
    20    17    18   ar
    21    18    19   ar
    22    19    22    1
    23    22    23   ar
    24    23    24   ar
    25    24    25   ar
    26    25    26   ar
    27    26    27   ar
    28    19    20   ar
    29    20    21   ar
    30     5     6   ar
    31     6     1   ar
    32    11     7   ar
    33    21    16   ar
    34    27    22   ar
    35    12    15    1
@<TRIPOS>MOLECULE
*****
 32 35 0 0 0
SMALL
GASTEIGER

@<TRIPOS>ATOM
      1 C          63.8243   84.3255   13.6626 C.ar    1  UNL1        0.0180
      2 C          64.4750   84.9889   14.8401 C.ar    1  UNL1        0.0029
      3 C          64.4685   86.4844   14.9566 C.ar    1  UNL1        0.0189
      4 C          63.8113   87.3164   13.8957 C.ar    1  UNL1        0.0789
      5 C          63.1605   86.6531   12.7183 C.ar    1  UNL1        0.0670
      6 C          63.1670   85.1576   12.6017 C.ar    1  UNL1        0.0174
      7 N          63.8048   88.8119   14.0122 N.ar    1  UNL1       -0.2852
      8 C          63.9841   89.7849   12.8848 C.ar    1  UNL1        0.1023
      9 C          63.9080   91.1713   13.4524 C.ar    1  UNL1        0.1196
     10 N          63.6816   91.0551   14.9307 N.ar    1  UNL1       -0.2220
     11 C          63.6178   89.5969   15.2767 C.ar    1  UNL1        0.1829
     12 N          62.5032   87.4852   11.6573 N.am    1  UNL1       -0.2780
     13 C          61.6801   86.8265   10.5903 C.2     1  UNL1        0.2688
     14 O          61.5142   85.3357   10.5842 O.2     1  UNL1       -0.2681
     15 H          62.6120   88.4637   11.6613 H       1  UNL1        0.1553
     16 C          61.0227   87.6586    9.5293 C.ar    1  UNL1        0.1538
     17 C          61.1328   89.1539    9.5734 C.ar    1  UNL1        0.1225
     18 N          60.4755   89.9859    8.5125 N.ar    1  UNL1       -0.2405
     19 C          59.7081   89.3226    7.4074 C.ar    1  UNL1        0.1004
     20 C          59.5981   87.8274    7.3632 C.ar    1  UNL1        0.1181
     21 N          60.2554   86.9954    8.4242 N.ar    1  UNL1       -0.2361
     22 C          59.0508   90.1547    6.3464 C.ar    1  UNL1        0.0192
     23 C          59.8818   91.0394    5.4650 C.ar    1  UNL1        0.0015
     24 C          59.2245   91.8714    4.4041 C.ar    1  UNL1        0.0000
     25 C          57.7362   91.8188    4.2246 C.ar    1  UNL1        0.0000
     26 C          56.9052   90.9342    5.1059 C.ar    1  UNL1        0.0000
     27 C          57.5625   90.1021    6.1668 C.ar    1  UNL1        0.0015
     28 N          63.1180   81.9951   14.5682 N.2     1  UNL1       -0.0873
     29 C          63.8308   82.8301   13.5461 C.2     1  UNL1        0.0974
     30 C          64.5500   82.1697   12.4075 C.3     1  UNL1        0.0555
     31 C          62.1837   79.8171   13.5034 C.3     1  UNL1        0.2885
     32 O          63.1245   80.4996   14.4516 O.2     1  UNL1       -0.3734
@<TRIPOS>BOND
     1    31    32    1
     2    32    28    1
     3    28    29    2
     4    29    30    1
     5    29     1    1
     6     1     2   ar
     7     2     3   ar
     8     3     4   ar
     9     4     7    1
    10     7     8   ar
    11     8     9   ar
    12     9    10   ar
    13    10    11   ar
    14     4     5   ar
    15     5    12    1
    16    12    13   am
    17    13    14    2
    18    13    16    1
    19    16    17   ar
    20    17    18   ar
    21    18    19   ar
    22    19    22    1
    23    22    23   ar
    24    23    24   ar
    25    24    25   ar
    26    25    26   ar
    27    26    27   ar
    28    19    20   ar
    29    20    21   ar
    30     5     6   ar
    31     6     1   ar
    32    11     7   ar
    33    21    16   ar
    34    27    22   ar
    35    12    15    1
@<TRIPOS>MOLECULE
*****
 32 35 0 0 0
SMALL
GASTEIGER

@<TRIPOS>ATOM
      1 C          59.3738   88.7692    7.3052 C.ar    1  UNL1        0.0180
      2 C          59.0080   87.3155    7.3594 C.ar    1  UNL1        0.0029
      3 C          59.7664   86.3843    8.2581 C.ar    1  UNL1        0.0189
      4 C          60.8907   86.9067    9.1025 C.ar    1  UNL1        0.0789
      5 C          61.2565   88.3604    9.0483 C.ar    1  UNL1        0.0670
      6 C          60.4981   89.2916    8.1496 C.ar    1  UNL1        0.0174
      7 N          61.6491   85.9755   10.0011 N.ar    1  UNL1       -0.2852
      8 C          61.5413   85.9098   11.4958 C.ar    1  UNL1        0.1023
      9 C          62.4741   84.8401   11.9814 C.ar    1  UNL1        0.1196
     10 N          63.1584   84.2446   10.7867 N.ar    1  UNL1       -0.2220
     11 C          62.6485   84.9463    9.5629 C.ar    1  UNL1        0.1829
     12 N          62.3808   88.8829    9.8927 N.am    1  UNL1       -0.2780
     13 C          62.1014   89.8727   10.9846 C.2     1  UNL1        0.2688
     14 O          60.6977   90.3401   11.2320 O.2     1  UNL1       -0.2681
     15 H          63.3021   88.5761    9.7304 H       1  UNL1        0.1553
     16 C          63.2257   90.3952   11.8290 C.ar    1  UNL1        0.1538
     17 C          64.0303   91.5718   11.3621 C.ar    1  UNL1        0.1225
     18 N          65.1545   92.0942   12.2065 N.ar    1  UNL1       -0.2405
     19 C          65.4741   91.4400   13.5179 C.ar    1  UNL1        0.1004
     20 C          64.6696   90.2634   13.9849 C.ar    1  UNL1        0.1181
     21 N          63.5453   89.7410   13.1405 N.ar    1  UNL1       -0.2361
     22 C          66.5984   91.9625   14.3624 C.ar    1  UNL1        0.0192
     23 C          66.3253   92.4589   15.7512 C.ar    1  UNL1        0.0015
     24 C          67.4495   92.9813   16.5956 C.ar    1  UNL1        0.0000
     25 C          68.8470   93.0074   16.0511 C.ar    1  UNL1        0.0000
     26 C          69.1202   92.5111   14.6623 C.ar    1  UNL1        0.0000
     27 C          67.9959   91.9886   13.8179 C.ar    1  UNL1        0.0015
     28 N          57.1155   89.6890    6.4087 N.2     1  UNL1       -0.0873
     29 C          58.6154   89.7005    6.4066 C.2     1  UNL1        0.0974
     30 C          59.3569   90.6432    5.5058 C.3     1  UNL1        0.0555
     31 C          57.0807   91.7117    4.7785 C.3     1  UNL1        0.2885
     32 O          56.3571   90.6202    5.5100 O.2     1  UNL1       -0.3734
@<TRIPOS>BOND
     1    31    32    1
     2    32    28    1
     3    28    29    2
     4    29    30    1
     5    29     1    1
     6     1     2   ar
     7     2     3   ar
     8     3     4   ar
     9     4     7    1
    10     7     8   ar
    11     8     9   ar
    12     9    10   ar
    13    10    11   ar
    14     4     5   ar
    15     5    12    1
    16    12    13   am
    17    13    14    2
    18    13    16    1
    19    16    17   ar
    20    17    18   ar
    21    18    19   ar
    22    19    22    1
    23    22    23   ar
    24    23    24   ar
    25    24    25   ar
    26    25    26   ar
    27    26    27   ar
    28    19    20   ar
    29    20    21   ar
    30     5     6   ar
    31     6     1   ar
    32    11     7   ar
    33    21    16   ar
    34    27    22   ar
    35    12    15    1
@<TRIPOS>MOLECULE
*****
 32 35 0 0 0
SMALL
GASTEIGER

@<TRIPOS>ATOM
      1 C          63.2423   82.8109   13.0751 C.ar    1  UNL1        0.0180
      2 C          64.1747   83.3465   14.1209 C.ar    1  UNL1        0.0029
      3 C          64.3515   84.8275   14.2805 C.ar    1  UNL1        0.0189
      4 C          63.5960   85.7728   13.3942 C.ar    1  UNL1        0.0789
      5 C          62.6636   85.2372   12.3484 C.ar    1  UNL1        0.0670
      6 C          62.4868   83.7562   12.1889 C.ar    1  UNL1        0.0174
      7 N          63.7729   87.2538   13.5538 N.ar    1  UNL1       -0.2852
      8 C          64.3661   87.9477   14.7439 C.ar    1  UNL1        0.1023
      9 C          64.3475   89.4237   14.4769 C.ar    1  UNL1        0.1196
     10 N          63.7426   89.6419   13.1217 N.ar    1  UNL1       -0.2220
     11 C          63.3875   88.3008   12.5512 C.ar    1  UNL1        0.1829
     12 N          61.9081   86.1825   11.4621 N.am    1  UNL1       -0.2780
     13 C          61.9967   86.0455    9.9711 C.2     1  UNL1        0.2688
     14 O          62.8408   84.9631    9.3662 O.2     1  UNL1       -0.2681
     15 H          61.3540   86.8929   11.8591 H       1  UNL1        0.1553
     16 C          61.2411   86.9908    9.0847 C.ar    1  UNL1        0.1538
     17 C          61.2391   88.4605    9.3846 C.ar    1  UNL1        0.1225
     18 N          60.4836   89.4058    8.4983 N.ar    1  UNL1       -0.2405
     19 C          59.7300   88.8813    7.3121 C.ar    1  UNL1        0.1004
     20 C          59.7319   87.4117    7.0122 C.ar    1  UNL1        0.1181
     21 N          60.4875   86.4664    7.8985 N.ar    1  UNL1       -0.2361
     22 C          58.9744   89.8267    6.4258 C.ar    1  UNL1        0.0192
     23 C          57.4801   89.7354    6.3330 C.ar    1  UNL1        0.0015
     24 C          56.7246   90.6807    5.4467 C.ar    1  UNL1        0.0000
     25 C          57.4634   91.7173    4.6533 C.ar    1  UNL1        0.0000
     26 C          58.9577   91.8086    4.7461 C.ar    1  UNL1        0.0000
     27 C          59.7132   90.8633    5.6324 C.ar    1  UNL1        0.0015
     28 N          62.9097   80.7363   11.5469 N.2     1  UNL1       -0.0873
     29 C          63.0654   81.3299   12.9156 C.2     1  UNL1        0.0974
     30 C          63.0442   80.4425   14.1247 C.3     1  UNL1        0.0555
     31 C          62.7992   78.6347   10.0233 C.3     1  UNL1        0.2885
     32 O          62.7329   79.2553   11.3874 O.2     1  UNL1       -0.3734
@<TRIPOS>BOND
     1    31    32    1
     2    32    28    1
     3    28    29    2
     4    29    30    1
     5    29     1    1
     6     1     2   ar
     7     2     3   ar
     8     3     4   ar
     9     4     7    1
    10     7     8   ar
    11     8     9   ar
    12     9    10   ar
    13    10    11   ar
    14     4     5   ar
    15     5    12    1
    16    12    13   am
    17    13    14    2
    18    13    16    1
    19    16    17   ar
    20    17    18   ar
    21    18    19   ar
    22    19    22    1
    23    22    23   ar
    24    23    24   ar
    25    24    25   ar
    26    25    26   ar
    27    26    27   ar
    28    19    20   ar
    29    20    21   ar
    30     5     6   ar
    31     6     1   ar
    32    11     7   ar
    33    21    16   ar
    34    27    22   ar
    35    12    15    1
@<TRIPOS>MOLECULE
*****
 32 35 0 0 0
SMALL
GASTEIGER

@<TRIPOS>ATOM
      1 C          65.6015   95.3618   10.7576 C.ar    1  UNL1        0.0180
      2 C          66.3037   96.0927   11.8634 C.ar    1  UNL1        0.0029
      3 C          66.7393   95.3527   13.0933 C.ar    1  UNL1        0.0189
      4 C          66.4728   93.8819   13.2174 C.ar    1  UNL1        0.0789
      5 C          65.7706   93.1510   12.1116 C.ar    1  UNL1        0.0670
      6 C          65.3350   93.8910   10.8818 C.ar    1  UNL1        0.0174
      7 N          66.9084   93.1419   14.4473 N.ar    1  UNL1       -0.2852
      8 C          68.2084   92.4148   14.6248 C.ar    1  UNL1        0.1023
      9 C          68.2240   91.8226   16.0028 C.ar    1  UNL1        0.1196
     10 N          66.9336   92.1836   16.6771 N.ar    1  UNL1       -0.2220
     11 C          66.1206   92.9990   15.7157 C.ar    1  UNL1        0.1829
     12 N          65.5041   91.6800   12.2357 N.am    1  UNL1       -0.2780
     13 C          64.4100   91.1895   13.1370 C.2     1  UNL1        0.2688
     14 O          63.5824   92.1698   13.9142 O.2     1  UNL1       -0.2681
     15 H          66.0473   91.0366   11.7256 H       1  UNL1        0.1553
     16 C          64.1435   89.7185   13.2611 C.ar    1  UNL1        0.1538
     17 C          63.3334   89.0122   12.2148 C.ar    1  UNL1        0.1225
     18 N          63.0669   87.5413   12.3389 N.ar    1  UNL1       -0.2405
     19 C          63.6105   86.7768   13.5093 C.ar    1  UNL1        0.1004
     20 C          64.4206   87.4831   14.5556 C.ar    1  UNL1        0.1181
     21 N          64.6871   88.9539   14.4315 N.ar    1  UNL1       -0.2361
     22 C          63.3439   85.3058   13.6334 C.ar    1  UNL1        0.0192
     23 C          62.9722   84.5060   12.4201 C.ar    1  UNL1        0.0015
     24 C          62.7057   83.0351   12.5443 C.ar    1  UNL1        0.0000
     25 C          62.8109   82.3641   13.8817 C.ar    1  UNL1        0.0000
     26 C          63.1826   83.1639   15.0949 C.ar    1  UNL1        0.0000
     27 C          63.4491   84.6348   14.9708 C.ar    1  UNL1        0.0015
     28 N          66.0271   96.0881    8.2997 N.2     1  UNL1       -0.0873
     29 C          65.1659   96.1018    9.5277 C.2     1  UNL1        0.0974
     30 C          63.8691   96.8555    9.5258 C.3     1  UNL1        0.0555
     31 C          65.6583   96.1591    5.7289 C.3     1  UNL1        0.2885
     32 O          65.5915   96.8281    7.0698 O.2     1  UNL1       -0.3734
@<TRIPOS>BOND
     1    31    32    1
     2    32    28    1
     3    28    29    2
     4    29    30    1
     5    29     1    1
     6     1     2   ar
     7     2     3   ar
     8     3     4   ar
     9     4     7    1
    10     7     8   ar
    11     8     9   ar
    12     9    10   ar
    13    10    11   ar
    14     4     5   ar
    15     5    12    1
    16    12    13   am
    17    13    14    2
    18    13    16    1
    19    16    17   ar
    20    17    18   ar
    21    18    19   ar
    22    19    22    1
    23    22    23   ar
    24    23    24   ar
    25    24    25   ar
    26    25    26   ar
    27    26    27   ar
    28    19    20   ar
    29    20    21   ar
    30     5     6   ar
    31     6     1   ar
    32    11     7   ar
    33    21    16   ar
    34    27    22   ar
    35    12    15    1
@<TRIPOS>MOLECULE
*****
 32 35 0 0 0
SMALL
GASTEIGER

@<TRIPOS>ATOM
      1 C          64.8882   91.4478   14.1015 C.ar    1  UNL1        0.0180
      2 C          64.5218   91.7148   15.5313 C.ar    1  UNL1        0.0029
      3 C          63.8515   90.6482   16.3455 C.ar    1  UNL1        0.0189
      4 C          63.5477   89.3145   15.7300 C.ar    1  UNL1        0.0789
      5 C          63.9141   89.0475   14.3002 C.ar    1  UNL1        0.0670
      6 C          64.5844   90.1141   13.4859 C.ar    1  UNL1        0.0174
      7 N          62.8774   88.2478   16.5442 N.ar    1  UNL1       -0.2852
      8 C          63.4083   87.6392   17.8082 C.ar    1  UNL1        0.1023
      9 C          62.4175   86.6177   18.2826 C.ar    1  UNL1        0.1196
     10 N          61.2743   86.5951   17.3118 N.ar    1  UNL1       -0.2220
     11 C          61.5585   87.6026   16.2374 C.ar    1  UNL1        0.1829
     12 N          63.6102   87.7138   13.6845 N.am    1  UNL1       -0.2780
     13 C          64.3341   86.4876   14.1561 C.2     1  UNL1        0.2688
     14 O          65.3619   86.5951   15.2434 O.2     1  UNL1       -0.2681
     15 H          62.9357   87.6432   12.9709 H       1  UNL1        0.1553
     16 C          64.0303   85.1539   13.5405 C.ar    1  UNL1        0.1538
     17 C          64.6146   83.9048   14.1307 C.ar    1  UNL1        0.1225
     18 N          64.3107   82.5712   13.5150 N.ar    1  UNL1       -0.2405
     19 C          63.4225   82.4866   12.3092 C.ar    1  UNL1        0.1004
     20 C          62.8382   83.7357   11.7190 C.ar    1  UNL1        0.1181
     21 N          63.1421   85.0693   12.3347 N.ar    1  UNL1       -0.2361
     22 C          63.1187   81.1529   11.6935 C.ar    1  UNL1        0.0192
     23 C          62.6976   80.0045   12.5618 C.ar    1  UNL1        0.0015
     24 C          62.3938   78.6709   11.9461 C.ar    1  UNL1        0.0000
     25 C          62.5110   78.4857   10.4622 C.ar    1  UNL1        0.0000
     26 C          62.9321   79.6341    9.5940 C.ar    1  UNL1        0.0000
     27 C          63.2359   80.9677   10.2096 C.ar    1  UNL1        0.0015
     28 N          65.2819   92.6205   11.8168 N.2     1  UNL1       -0.0873
     29 C          65.5585   92.5144   13.2873 C.2     1  UNL1        0.0974
     30 C          66.5054   93.4750   13.9434 C.3     1  UNL1        0.0555
     31 C          67.0466   93.3222   10.0438 C.3     1  UNL1        0.2885
     32 O          65.9522   93.6871   11.0026 O.2     1  UNL1       -0.3734
@<TRIPOS>BOND
     1    31    32    1
     2    32    28    1
     3    28    29    2
     4    29    30    1
     5    29     1    1
     6     1     2   ar
     7     2     3   ar
     8     3     4   ar
     9     4     7    1
    10     7     8   ar
    11     8     9   ar
    12     9    10   ar
    13    10    11   ar
    14     4     5   ar
    15     5    12    1
    16    12    13   am
    17    13    14    2
    18    13    16    1
    19    16    17   ar
    20    17    18   ar
    21    18    19   ar
    22    19    22    1
    23    22    23   ar
    24    23    24   ar
    25    24    25   ar
    26    25    26   ar
    27    26    27   ar
    28    19    20   ar
    29    20    21   ar
    30     5     6   ar
    31     6     1   ar
    32    11     7   ar
    33    21    16   ar
    34    27    22   ar
    35    12    15    1
