@<TRIPOS>MOLECULE
*****
 32 35 0 0 0
SMALL
GASTEIGER

@<TRIPOS>ATOM
      1 C          63.6837   90.5257   12.5540 C.ar    1  UNL1        0.0180
      2 C          63.0901   91.2414   11.3770 C.ar    1  UNL1        0.0029
      3 C          62.3101   90.4763   10.3493 C.ar    1  UNL1        0.0189
      4 C          62.1236   88.9955   10.4987 C.ar    1  UNL1        0.0789
      5 C          62.7171   88.2798   11.6757 C.ar    1  UNL1        0.0670
      6 C          63.4972   89.0449   12.7034 C.ar    1  UNL1        0.0174
      7 N          61.3436   88.2303    9.4710 N.ar    1  UNL1       -0.2852
      8 C          61.6174   86.8255    9.0221 C.ar    1  UNL1        0.1023
      9 C          60.5958   86.4626    7.9854 C.ar    1  UNL1        0.1196
     10 N          59.6905   87.6432    7.7936 N.ar    1  UNL1       -0.2220
     11 C          60.1527   88.7357    8.7117 C.ar    1  UNL1        0.1829
     12 N          62.5307   86.7989   11.8251 N.am    1  UNL1       -0.2788
     13 C          63.1710   86.0742   12.9717 C.2     1  UNL1        0.2568
     14 O          63.9979   86.8303   13.9689 O.2     1  UNL1       -0.2692
     15 H          61.9880   86.3025   11.1705 H       1  UNL1        0.1552
     16 C          62.9846   84.5933   13.1211 C.ar    1  UNL1        0.0980
     17 S          63.0511   83.5805   12.0166 S.2     1  UNL1       -0.0623
     18 C          62.8065   82.2265   12.6140 C.ar    1  UNL1        0.1104
     19 N          62.5888   82.4025   14.0877 N.ar    1  UNL1       -0.2425
     20 C          62.6989   83.8653   14.4010 C.ar    1  UNL1        0.0703
     21 C          62.5495   84.4904   15.7564 C.3     1  UNL1        0.0528
     22 C          62.7836   80.9250   11.8687 C.ar    1  UNL1        0.0238
     23 C          63.0327   80.9032   10.3897 C.ar    1  UNL1        0.0020
     24 C          63.0098   79.6017    9.6443 C.ar    1  UNL1        0.0001
     25 C          62.7377   78.3220   10.3780 C.ar    1  UNL1        0.0000
     26 C          62.4886   78.3438   11.8570 C.ar    1  UNL1        0.0001
     27 C          62.5115   79.6452   12.6024 C.ar    1  UNL1        0.0020
     28 N          65.2339   92.5140   13.1811 N.2     1  UNL1       -0.0873
     29 C          64.4637   91.2908   13.5817 C.2     1  UNL1        0.0974
     30 C          64.4736   90.8327   15.0100 C.3     1  UNL1        0.0555
     31 C          67.4561   92.9480   14.4554 C.3     1  UNL1        0.2885
     32 O          66.0140   93.2791   14.2088 O.2     1  UNL1       -0.3734
@<TRIPOS>BOND
     1    31    32    1
     2    32    28    1
     3    28    29    2
     4    29    30    1
     5    29     1    1
     6     1     2   ar
     7     2     3   ar
     8     3     4   ar
     9     4     7    1
    10     7     8   ar
    11     8     9   ar
    12     9    10   ar
    13    10    11   ar
    14     4     5   ar
    15     5    12    1
    16    12    13   am
    17    13    14    2
    18    13    16    1
    19    16    17   ar
    20    17    18   ar
    21    18    22    1
    22    22    23   ar
    23    23    24   ar
    24    24    25   ar
    25    25    26   ar
    26    26    27   ar
    27    18    19   ar
    28    19    20   ar
    29    20    21    1
    30     5     6   ar
    31     6     1   ar
    32    11     7   ar
    33    20    16   ar
    34    27    22   ar
    35    12    15    1
@<TRIPOS>MOLECULE
*****
 32 35 0 0 0
SMALL
GASTEIGER

@<TRIPOS>ATOM
      1 C          65.5529   91.5753   13.7914 C.ar    1  UNL1        0.0180
      2 C          64.9577   92.4328   12.7142 C.ar    1  UNL1        0.0029
      3 C          63.8660   91.8896   11.8406 C.ar    1  UNL1        0.0189
      4 C          63.3695   90.4890   12.0441 C.ar    1  UNL1        0.0789
      5 C          63.9647   89.6314   13.1213 C.ar    1  UNL1        0.0670
      6 C          65.0563   90.1746   13.9950 C.ar    1  UNL1        0.0174
      7 N          62.2778   89.9458   11.1705 N.ar    1  UNL1       -0.2852
      8 C          62.4249   88.8558   10.1506 C.ar    1  UNL1        0.1023
      9 C          61.0854   88.6336    9.5131 C.ar    1  UNL1        0.1196
     10 N          60.1104   89.5862   10.1391 N.ar    1  UNL1       -0.2220
     11 C          60.8474   90.3972   11.1635 C.ar    1  UNL1        0.1829
     12 N          63.4681   88.2307   13.3250 N.am    1  UNL1       -0.2788
     13 C          64.1594   87.3242   14.2998 C.2     1  UNL1        0.2568
     14 O          65.3473   87.8184   15.0711 O.2     1  UNL1       -0.2692
     15 H          62.6885   87.9063   12.8188 H       1  UNL1        0.1552
     16 C          63.6629   85.9234   14.5035 C.ar    1  UNL1        0.0980
     17 S          63.6427   84.8363   13.4701 S.2     1  UNL1       -0.0623
     18 C          63.0667   83.6049   14.1042 C.ar    1  UNL1        0.1104
     19 N          62.7310   83.9310   15.5293 N.ar    1  UNL1       -0.2425
     20 C          63.0995   85.3640   15.7761 C.ar    1  UNL1        0.0703
     21 C          62.9337   86.1070   17.0685 C.3     1  UNL1        0.0528
     22 C          62.8624   82.2800   13.4312 C.ar    1  UNL1        0.0238
     23 C          62.3030   81.1237   14.2059 C.ar    1  UNL1        0.0020
     24 C          62.0986   79.7988   13.5329 C.ar    1  UNL1        0.0001
     25 C          62.4536   79.6302   12.0854 C.ar    1  UNL1        0.0000
     26 C          63.0130   80.7865   11.3107 C.ar    1  UNL1        0.0001
     27 C          63.2174   82.1114   11.9836 C.ar    1  UNL1        0.0020
     28 N          68.0095   92.3650   14.0939 N.2     1  UNL1       -0.0873
     29 C          66.6445   92.1185   14.6650 C.2     1  UNL1        0.0974
     30 C          66.3713   92.4152   16.1097 C.3     1  UNL1        0.0555
     31 C          68.8840   94.1770   15.7377 C.3     1  UNL1        0.2885
     32 O          69.1011   92.9081   14.9675 O.2     1  UNL1       -0.3734
@<TRIPOS>BOND
     1    31    32    1
     2    32    28    1
     3    28    29    2
     4    29    30    1
     5    29     1    1
     6     1     2   ar
     7     2     3   ar
     8     3     4   ar
     9     4     7    1
    10     7     8   ar
    11     8     9   ar
    12     9    10   ar
    13    10    11   ar
    14     4     5   ar
    15     5    12    1
    16    12    13   am
    17    13    14    2
    18    13    16    1
    19    16    17   ar
    20    17    18   ar
    21    18    22    1
    22    22    23   ar
    23    23    24   ar
    24    24    25   ar
    25    25    26   ar
    26    26    27   ar
    27    18    19   ar
    28    19    20   ar
    29    20    21    1
    30     5     6   ar
    31     6     1   ar
    32    11     7   ar
    33    20    16   ar
    34    27    22   ar
    35    12    15    1
@<TRIPOS>MOLECULE
*****
 32 35 0 0 0
SMALL
GASTEIGER

@<TRIPOS>ATOM
      1 C          62.9634   82.1671   12.3168 C.ar    1  UNL1        0.0180
      2 C          62.4078   81.6829   13.6232 C.ar    1  UNL1        0.0029
      3 C          62.2467   82.6370   14.7694 C.ar    1  UNL1        0.0189
      4 C          62.6412   84.0752   14.6092 C.ar    1  UNL1        0.0789
      5 C          63.1968   84.5594   13.3028 C.ar    1  UNL1        0.0670
      6 C          63.3579   83.6053   12.1566 C.ar    1  UNL1        0.0174
      7 N          62.4801   85.0293   15.7554 N.ar    1  UNL1       -0.2852
      8 C          63.5824   85.5560   16.6258 C.ar    1  UNL1        0.1023
      9 C          62.9720   86.4764   17.6408 C.ar    1  UNL1        0.1196
     10 N          61.4924   86.5186   17.3977 N.ar    1  UNL1       -0.2220
     11 C          61.1884   85.6242   16.2325 C.ar    1  UNL1        0.1829
     12 N          63.5914   85.9978   13.1425 N.am    1  UNL1       -0.2788
     13 C          62.6888   86.9459   12.4102 C.2     1  UNL1        0.2568
     14 O          61.3917   86.4558   11.8381 O.2     1  UNL1       -0.2692
     15 H          64.4427   86.3194   13.5179 H       1  UNL1        0.1552
     16 C          63.0834   88.3842   12.2499 C.ar    1  UNL1        0.0980
     17 S          64.0344   89.1407   13.1292 S.2     1  UNL1       -0.0623
     18 C          64.1350   90.5426   12.6049 C.ar    1  UNL1        0.1104
     19 N          63.2460   90.6524   11.4017 N.ar    1  UNL1       -0.2425
     20 C          62.5961   89.3184   11.1823 C.ar    1  UNL1        0.0703
     21 C          61.6288   88.9784   10.0875 C.3     1  UNL1        0.0528
     22 C          64.9767   91.6417   13.1825 C.ar    1  UNL1        0.0238
     23 C          65.4484   92.7644   12.3066 C.ar    1  UNL1        0.0020
     24 C          66.2901   93.8634   12.8842 C.ar    1  UNL1        0.0001
     25 C          66.6601   93.8398   14.3376 C.ar    1  UNL1        0.0000
     26 C          66.1884   92.7171   15.2135 C.ar    1  UNL1        0.0001
     27 C          65.3467   91.6181   14.6359 C.ar    1  UNL1        0.0020
     28 N          62.6405   79.7990   11.2981 N.2     1  UNL1       -0.0873
     29 C          63.1245   81.2130   11.1706 C.2     1  UNL1        0.0974
     30 C          63.7696   81.6729    9.8969 C.3     1  UNL1        0.0555
     31 C          62.9187   77.3724   10.4126 C.3     1  UNL1        0.2885
     32 O          62.8016   78.8449   10.1519 O.2     1  UNL1       -0.3734
@<TRIPOS>BOND
     1    31    32    1
     2    32    28    1
     3    28    29    2
     4    29    30    1
     5    29     1    1
     6     1     2   ar
     7     2     3   ar
     8     3     4   ar
     9     4     7    1
    10     7     8   ar
    11     8     9   ar
    12     9    10   ar
    13    10    11   ar
    14     4     5   ar
    15     5    12    1
    16    12    13   am
    17    13    14    2
    18    13    16    1
    19    16    17   ar
    20    17    18   ar
    21    18    22    1
    22    22    23   ar
    23    23    24   ar
    24    24    25   ar
    25    25    26   ar
    26    26    27   ar
    27    18    19   ar
    28    19    20   ar
    29    20    21    1
    30     5     6   ar
    31     6     1   ar
    32    11     7   ar
    33    20    16   ar
    34    27    22   ar
    35    12    15    1
@<TRIPOS>MOLECULE
*****
 32 35 0 0 0
SMALL
GASTEIGER

@<TRIPOS>ATOM
      1 C          60.7914   87.2076    9.3640 C.ar    1  UNL1        0.0180
      2 C          60.7659   85.7079    9.3797 C.ar    1  UNL1        0.0029
      3 C          61.5989   84.9539   10.3734 C.ar    1  UNL1        0.0189
      4 C          62.4574   85.6995   11.3516 C.ar    1  UNL1        0.0789
      5 C          62.4830   87.1992   11.3359 C.ar    1  UNL1        0.0670
      6 C          61.6500   87.9532   10.3422 C.ar    1  UNL1        0.0174
      7 N          63.2904   84.9455   12.3453 N.ar    1  UNL1       -0.2852
      8 C          63.5435   85.3466   13.7684 C.ar    1  UNL1        0.1023
      9 C          64.4261   84.3070   14.3931 C.ar    1  UNL1        0.1196
     10 N          64.7185   83.2634   13.3561 N.ar    1  UNL1       -0.2220
     11 C          64.0167   83.6580   12.0906 C.ar    1  UNL1        0.1829
     12 N          63.3416   87.9450   12.3141 N.am    1  UNL1       -0.2788
     13 C          62.8241   89.1917   12.9680 C.2     1  UNL1        0.2568
     14 O          61.4479   89.6928   12.6439 O.2     1  UNL1       -0.2692
     15 H          64.2448   87.6161   12.5269 H       1  UNL1        0.1552
     16 C          63.6827   89.9375   13.9462 C.ar    1  UNL1        0.0980
     17 S          64.9936   90.6001   13.6423 S.2     1  UNL1       -0.0623
     18 C          65.5023   91.2237   14.9082 C.ar    1  UNL1        0.1104
     19 N          64.5056   90.9464   15.9945 N.ar    1  UNL1       -0.2425
     20 C          63.3810   90.1515   15.3999 C.ar    1  UNL1        0.0703
     21 C          62.1679   89.6574   16.1306 C.3     1  UNL1        0.0528
     22 C          66.7827   91.9899   15.0611 C.ar    1  UNL1        0.0238
     23 C          66.9491   92.9530   16.1990 C.ar    1  UNL1        0.0020
     24 C          68.2295   93.7192   16.3519 C.ar    1  UNL1        0.0001
     25 C          69.3435   93.5224   15.3668 C.ar    1  UNL1        0.0000
     26 C          69.1770   92.5594   14.2288 C.ar    1  UNL1        0.0001
     27 C          67.8966   91.7931   14.0760 C.ar    1  UNL1        0.0020
     28 N          60.1445   89.4407    8.2046 N.2     1  UNL1       -0.0873
     29 C          59.9584   87.9616    8.3703 C.2     1  UNL1        0.0974
     30 C          58.9394   87.2365    7.5422 C.3     1  UNL1        0.0555
     31 C          59.7138   90.2271    5.7661 C.3     1  UNL1        0.2885
     32 O          59.3115   90.1947    7.2108 O.2     1  UNL1       -0.3734
@<TRIPOS>BOND
     1    31    32    1
     2    32    28    1
     3    28    29    2
     4    29    30    1
     5    29     1    1
     6     1     2   ar
     7     2     3   ar
     8     3     4   ar
     9     4     7    1
    10     7     8   ar
    11     8     9   ar
    12     9    10   ar
    13    10    11   ar
    14     4     5   ar
    15     5    12    1
    16    12    13   am
    17    13    14    2
    18    13    16    1
    19    16    17   ar
    20    17    18   ar
    21    18    22    1
    22    22    23   ar
    23    23    24   ar
    24    24    25   ar
    25    25    26   ar
    26    26    27   ar
    27    18    19   ar
    28    19    20   ar
    29    20    21    1
    30     5     6   ar
    31     6     1   ar
    32    11     7   ar
    33    20    16   ar
    34    27    22   ar
    35    12    15    1
@<TRIPOS>MOLECULE
*****
 32 35 0 0 0
SMALL
GASTEIGER

@<TRIPOS>ATOM
      1 C          59.7155   88.7357    7.3210 C.ar    1  UNL1        0.0180
      2 C          59.3924   87.2785    7.1724 C.ar    1  UNL1        0.0029
      3 C          60.1209   86.2607    7.9992 C.ar    1  UNL1        0.0189
      4 C          61.1723   86.7001    8.9745 C.ar    1  UNL1        0.0789
      5 C          61.4954   88.1573    9.1230 C.ar    1  UNL1        0.0670
      6 C          60.7669   89.1751    8.2963 C.ar    1  UNL1        0.0174
      7 N          61.9008   85.6823    9.8012 N.ar    1  UNL1       -0.2852
      8 C          61.6256   85.3536   11.2387 C.ar    1  UNL1        0.1023
      9 C          62.5870   84.2827   11.6615 C.ar    1  UNL1        0.1196
     10 N          63.4564   83.9495   10.4854 N.ar    1  UNL1       -0.2220
     11 C          63.0322   84.8146    9.3357 C.ar    1  UNL1        0.1829
     12 N          62.5469   88.5968   10.0984 N.am    1  UNL1       -0.2788
     13 C          62.1820   88.8503   11.5310 C.2     1  UNL1        0.2568
     14 O          60.7656   88.6642   11.9885 O.2     1  UNL1       -0.2692
     15 H          63.4765   88.7189    9.7982 H       1  UNL1        0.1552
     16 C          63.2335   89.2898   12.5064 C.ar    1  UNL1        0.0980
     17 S          63.8518   90.6544   12.5807 S.2     1  UNL1       -0.0623
     18 C          64.8518   90.6499   13.6989 C.ar    1  UNL1        0.1104
     19 N          64.8514   89.2824   14.3155 N.ar    1  UNL1       -0.2425
     20 C          63.8513   88.4419   13.5785 C.ar    1  UNL1        0.0703
     21 C          63.5260   87.0056   13.8635 C.3     1  UNL1        0.0528
     22 C          65.7026   91.8092   14.1255 C.ar    1  UNL1        0.0238
     23 C          65.8550   92.9991   13.2250 C.ar    1  UNL1        0.0020
     24 C          66.7059   94.1584   13.6516 C.ar    1  UNL1        0.0001
     25 C          67.4044   94.1278   14.9787 C.ar    1  UNL1        0.0000
     26 C          67.2520   92.9378   15.8792 C.ar    1  UNL1        0.0001
     27 C          66.4012   91.7785   15.4526 C.ar    1  UNL1        0.0020
     28 N          59.7582   90.7646    5.6987 N.2     1  UNL1       -0.0873
     29 C          58.9870   89.7535    6.4943 C.2     1  UNL1        0.0974
     30 C          57.4874   89.7601    6.4630 C.3     1  UNL1        0.0555
     31 C          59.7488   92.5123    3.7763 C.3     1  UNL1        0.2885
     32 O          59.0298   91.7824    4.8720 O.2     1  UNL1       -0.3734
@<TRIPOS>BOND
     1    31    32    1
     2    32    28    1
     3    28    29    2
     4    29    30    1
     5    29     1    1
     6     1     2   ar
     7     2     3   ar
     8     3     4   ar
     9     4     7    1
    10     7     8   ar
    11     8     9   ar
    12     9    10   ar
    13    10    11   ar
    14     4     5   ar
    15     5    12    1
    16    12    13   am
    17    13    14    2
    18    13    16    1
    19    16    17   ar
    20    17    18   ar
    21    18    22    1
    22    22    23   ar
    23    23    24   ar
    24    24    25   ar
    25    25    26   ar
    26    26    27   ar
    27    18    19   ar
    28    19    20   ar
    29    20    21    1
    30     5     6   ar
    31     6     1   ar
    32    11     7   ar
    33    20    16   ar
    34    27    22   ar
    35    12    15    1
@<TRIPOS>MOLECULE
*****
 32 35 0 0 0
SMALL
GASTEIGER

@<TRIPOS>ATOM
      1 C          62.6933   92.5755    1.5485 C.ar    1  UNL1        0.0180
      2 C          64.0597   93.1030    1.2250 C.ar    1  UNL1        0.0029
      3 C          64.2879   93.8643   -0.0471 C.ar    1  UNL1        0.0189
      4 C          63.1497   94.0982   -0.9957 C.ar    1  UNL1        0.0789
      5 C          61.7834   93.5707   -0.6721 C.ar    1  UNL1        0.0670
      6 C          61.5552   92.8093    0.6000 C.ar    1  UNL1        0.0174
      7 N          63.3779   94.8596   -2.2678 N.ar    1  UNL1       -0.2852
      8 C          63.0174   96.2948   -2.5131 C.ar    1  UNL1        0.1023
      9 C          63.4234   96.6416   -3.9149 C.ar    1  UNL1        0.1196
     10 N          64.0348   95.4208   -4.5359 N.ar    1  UNL1       -0.2220
     11 C          64.0067   94.3194   -3.5179 C.ar    1  UNL1        0.1829
     12 N          60.6451   93.8045   -1.6207 N.am    1  UNL1       -0.2788
     13 C          59.6374   94.8776   -1.3330 C.2     1  UNL1        0.2568
     14 O          59.7678   95.7170   -0.0967 O.2     1  UNL1       -0.2692
     15 H          60.5595   93.2536   -2.4322 H       1  UNL1        0.1552
     16 C          58.4991   95.1115   -2.2816 C.ar    1  UNL1        0.0980
     17 S          57.0554   95.2666   -1.9051 S.2     1  UNL1       -0.0623
     18 C          56.2687   95.4822   -3.1640 C.ar    1  UNL1        0.1104
     19 N          57.2263   95.4604   -4.3184 N.ar    1  UNL1       -0.2425
     20 C          58.6047   95.2312   -3.7730 C.ar    1  UNL1        0.0703
     21 C          59.8671   95.1382   -4.5778 C.3     1  UNL1        0.0528
     22 C          54.7851   95.6842   -3.2528 C.ar    1  UNL1        0.0238
     23 C          53.9315   95.5218   -2.0301 C.ar    1  UNL1        0.0020
     24 C          52.4478   95.7238   -2.1189 C.ar    1  UNL1        0.0001
     25 C          51.8178   96.0882   -3.4305 C.ar    1  UNL1        0.0000
     26 C          52.6713   96.2506   -4.6533 C.ar    1  UNL1        0.0001
     27 C          54.1550   96.0486   -4.5644 C.ar    1  UNL1        0.0020
     28 N          61.1957   92.0109    3.5951 N.2     1  UNL1       -0.0873
     29 C          62.4652   91.8141    2.8206 C.2     1  UNL1        0.0974
     30 C          63.5064   90.8559    3.3183 C.3     1  UNL1        0.0555
     31 C          59.5731   90.8860    5.2838 C.3     1  UNL1        0.2885
     32 O          60.9675   91.2495    4.8672 O.2     1  UNL1       -0.3734
@<TRIPOS>BOND
     1    31    32    1
     2    32    28    1
     3    28    29    2
     4    29    30    1
     5    29     1    1
     6     1     2   ar
     7     2     3   ar
     8     3     4   ar
     9     4     7    1
    10     7     8   ar
    11     8     9   ar
    12     9    10   ar
    13    10    11   ar
    14     4     5   ar
    15     5    12    1
    16    12    13   am
    17    13    14    2
    18    13    16    1
    19    16    17   ar
    20    17    18   ar
    21    18    22    1
    22    22    23   ar
    23    23    24   ar
    24    24    25   ar
    25    25    26   ar
    26    26    27   ar
    27    18    19   ar
    28    19    20   ar
    29    20    21    1
    30     5     6   ar
    31     6     1   ar
    32    11     7   ar
    33    20    16   ar
    34    27    22   ar
    35    12    15    1
@<TRIPOS>MOLECULE
*****
 32 35 0 0 0
SMALL
GASTEIGER

@<TRIPOS>ATOM
      1 C          62.9635   85.3815   12.7037 C.ar    1  UNL1        0.0180
      2 C          61.6577   85.1227   12.0124 C.ar    1  UNL1        0.0029
      3 C          60.9747   86.2272   11.2616 C.ar    1  UNL1        0.0189
      4 C          61.5976   87.5905   11.2021 C.ar    1  UNL1        0.0789
      5 C          62.9033   87.8492   11.8934 C.ar    1  UNL1        0.0670
      6 C          63.5863   86.7448   12.6442 C.ar    1  UNL1        0.0174
      7 N          60.9146   88.6949   10.4514 N.ar    1  UNL1       -0.2852
      8 C          60.7099   88.7566    8.9667 C.ar    1  UNL1        0.1023
      9 C          59.9852   90.0315    8.6512 C.ar    1  UNL1        0.1196
     10 N          59.7419   90.7577    9.9409 N.ar    1  UNL1       -0.2220
     11 C          60.3163   89.9317   11.0535 C.ar    1  UNL1        0.1829
     12 N          63.5262   89.2126   11.8340 N.am    1  UNL1       -0.2788
     13 C          64.0917   89.8336   13.0767 C.2     1  UNL1        0.2568
     14 O          64.0344   89.0914   14.3790 O.2     1  UNL1       -0.2692
     15 H          63.5638   89.6997   10.9793 H       1  UNL1        0.1552
     16 C          64.7146   91.1969   13.0172 C.ar    1  UNL1        0.0980
     17 S          65.0749   91.9479   11.7697 S.2     1  UNL1       -0.0623
     18 C          65.6695   93.2637   12.1763 C.ar    1  UNL1        0.1104
     19 N          65.6766   93.3258   13.6751 N.ar    1  UNL1       -0.2425
     20 C          65.0865   92.0485   14.1947 C.ar    1  UNL1        0.0703
     21 C          64.9007   91.6863   15.6384 C.3     1  UNL1        0.0528
     22 C          66.1692   94.3301   11.2473 C.ar    1  UNL1        0.0238
     23 C          66.0327   95.7760   11.6226 C.ar    1  UNL1        0.0020
     24 C          66.5325   96.8424   10.6935 C.ar    1  UNL1        0.0001
     25 C          67.1687   96.4628    9.3892 C.ar    1  UNL1        0.0000
     26 C          67.3051   95.0169    9.0140 C.ar    1  UNL1        0.0001
     27 C          66.8054   93.9506    9.9430 C.ar    1  UNL1        0.0020
     28 N          63.0213   82.9150   13.5180 N.2     1  UNL1       -0.0873
     29 C          63.6465   84.2770   13.4544 C.2     1  UNL1        0.0974
     30 C          64.9546   84.5345   14.1417 C.3     1  UNL1        0.0555
     31 C          63.4484   80.3803   13.8958 C.3     1  UNL1        0.2885
     32 O          63.7043   81.8105   14.2687 O.2     1  UNL1       -0.3734
@<TRIPOS>BOND
     1    31    32    1
     2    32    28    1
     3    28    29    2
     4    29    30    1
     5    29     1    1
     6     1     2   ar
     7     2     3   ar
     8     3     4   ar
     9     4     7    1
    10     7     8   ar
    11     8     9   ar
    12     9    10   ar
    13    10    11   ar
    14     4     5   ar
    15     5    12    1
    16    12    13   am
    17    13    14    2
    18    13    16    1
    19    16    17   ar
    20    17    18   ar
    21    18    22    1
    22    22    23   ar
    23    23    24   ar
    24    24    25   ar
    25    25    26   ar
    26    26    27   ar
    27    18    19   ar
    28    19    20   ar
    29    20    21    1
    30     5     6   ar
    31     6     1   ar
    32    11     7   ar
    33    20    16   ar
    34    27    22   ar
    35    12    15    1
@<TRIPOS>MOLECULE
*****
 32 35 0 0 0
SMALL
GASTEIGER

@<TRIPOS>ATOM
      1 C          63.2422   83.3361   12.3805 C.ar    1  UNL1        0.0180
      2 C          62.5520   82.6621   13.5291 C.ar    1  UNL1        0.0029
      3 C          62.3468   83.4005   14.8186 C.ar    1  UNL1        0.0189
      4 C          62.8318   84.8129   14.9594 C.ar    1  UNL1        0.0789
      5 C          63.5219   85.4869   13.8108 C.ar    1  UNL1        0.0670
      6 C          63.7272   84.7485   12.5213 C.ar    1  UNL1        0.0174
      7 N          62.6265   85.5513   16.2488 N.ar    1  UNL1       -0.2852
      8 C          63.6790   85.8361   17.2789 C.ar    1  UNL1        0.1023
      9 C          63.0358   86.5954   18.4013 C.ar    1  UNL1        0.1196
     10 N          61.5857   86.7799   18.0649 N.ar    1  UNL1       -0.2220
     11 C          61.3328   86.1346   16.7346 C.ar    1  UNL1        0.1829
     12 N          64.0069   86.8994   13.9516 N.am    1  UNL1       -0.2788
     13 C          63.3906   87.9898   13.1262 C.2     1  UNL1        0.2568
     14 O          62.2893   87.6677   12.1601 O.2     1  UNL1       -0.2692
     15 H          64.7297   87.1108   14.5857 H       1  UNL1        0.1552
     16 C          63.8756   89.4022   13.2670 C.ar    1  UNL1        0.0980
     17 S          64.4185   90.2620   12.1642 S.2     1  UNL1       -0.0623
     18 C          64.7813   91.5941   12.7509 C.ar    1  UNL1        0.1104
     19 N          64.4625   91.5575   14.2163 N.ar    1  UNL1       -0.2425
     20 C          63.9028   90.2029   14.5352 C.ar    1  UNL1        0.0703
     21 C          63.4498   89.7315   15.8852 C.3     1  UNL1        0.0528
     22 C          65.3610   92.7583   12.0035 C.ar    1  UNL1        0.0238
     23 C          65.9197   93.9295   12.7559 C.ar    1  UNL1        0.0020
     24 C          66.4993   95.0937   12.0086 C.ar    1  UNL1        0.0001
     25 C          66.5203   95.0866   10.5087 C.ar    1  UNL1        0.0000
     26 C          65.9616   93.9154    9.7563 C.ar    1  UNL1        0.0001
     27 C          65.3820   92.7512   10.5037 C.ar    1  UNL1        0.0020
     28 N          63.0982   81.1420   10.9966 N.2     1  UNL1       -0.0873
     29 C          63.4474   82.5977   11.0911 C.2     1  UNL1        0.0974
     30 C          64.0019   83.3150    9.8961 C.3     1  UNL1        0.0555
     31 C          62.6991   79.0439    9.5172 C.3     1  UNL1        0.2885
     32 O          63.3034   80.4036    9.7072 O.2     1  UNL1       -0.3734
@<TRIPOS>BOND
     1    31    32    1
     2    32    28    1
     3    28    29    2
     4    29    30    1
     5    29     1    1
     6     1     2   ar
     7     2     3   ar
     8     3     4   ar
     9     4     7    1
    10     7     8   ar
    11     8     9   ar
    12     9    10   ar
    13    10    11   ar
    14     4     5   ar
    15     5    12    1
    16    12    13   am
    17    13    14    2
    18    13    16    1
    19    16    17   ar
    20    17    18   ar
    21    18    22    1
    22    22    23   ar
    23    23    24   ar
    24    24    25   ar
    25    25    26   ar
    26    26    27   ar
    27    18    19   ar
    28    19    20   ar
    29    20    21    1
    30     5     6   ar
    31     6     1   ar
    32    11     7   ar
    33    20    16   ar
    34    27    22   ar
    35    12    15    1
@<TRIPOS>MOLECULE
*****
 32 35 0 0 0
SMALL
GASTEIGER

@<TRIPOS>ATOM
      1 C          61.4477   92.7798    2.0666 C.ar    1  UNL1        0.0180
      2 C          62.9430   92.8835    2.0102 C.ar    1  UNL1        0.0029
      3 C          63.6205   93.2647    0.7273 C.ar    1  UNL1        0.0189
      4 C          62.8027   93.5421   -0.4991 C.ar    1  UNL1        0.0789
      5 C          61.3074   93.4384   -0.4426 C.ar    1  UNL1        0.0670
      6 C          60.6299   93.0573    0.8402 C.ar    1  UNL1        0.0174
      7 N          63.4801   93.9233   -1.7820 N.ar    1  UNL1       -0.2852
      8 C          63.6617   93.0389   -2.9798 C.ar    1  UNL1        0.1023
      9 C          64.3888   93.8248   -4.0304 C.ar    1  UNL1        0.1196
     10 N          64.6566   95.1950   -3.4819 N.ar    1  UNL1       -0.2220
     11 C          64.0950   95.2558   -2.0923 C.ar    1  UNL1        0.1829
     12 N          60.4894   93.7159   -1.6691 N.am    1  UNL1       -0.2788
     13 C          60.0044   95.1076   -1.9480 C.2     1  UNL1        0.2568
     14 O          60.3372   96.2219   -1.0006 O.2     1  UNL1       -0.2692
     15 H          60.2710   92.9846   -2.2909 H       1  UNL1        0.1552
     16 C          59.1864   95.3851   -3.1745 C.ar    1  UNL1        0.0980
     17 S          57.7099   95.6468   -3.2088 S.2     1  UNL1       -0.0623
     18 C          57.3123   95.8730   -4.6374 C.ar    1  UNL1        0.1104
     19 N          58.5433   95.7510   -5.4860 N.ar    1  UNL1       -0.2425
     20 C          59.7015   95.4495   -4.5818 C.ar    1  UNL1        0.0703
     21 C          61.1249   95.2477   -5.0098 C.3     1  UNL1        0.0528
     22 C          55.9271   96.1692   -5.1308 C.ar    1  UNL1        0.0238
     23 C          54.7689   96.1376   -4.1782 C.ar    1  UNL1        0.0020
     24 C          53.3837   96.4338   -4.6716 C.ar    1  UNL1        0.0001
     25 C          53.1567   96.7615   -6.1176 C.ar    1  UNL1        0.0000
     26 C          54.3149   96.7931   -7.0703 C.ar    1  UNL1        0.0001
     27 C          55.7001   96.4969   -6.5769 C.ar    1  UNL1        0.0020
     28 N          59.4175   92.9573    3.6781 N.2     1  UNL1       -0.0873
     29 C          60.7703   92.3986    3.3495 C.2     1  UNL1        0.0974
     30 C          61.4455   91.4589    4.3038 C.3     1  UNL1        0.0555
     31 C          57.7775   91.4259    4.9878 C.3     1  UNL1        0.2885
     32 O          58.7400   92.5761    4.9609 O.2     1  UNL1       -0.3734
@<TRIPOS>BOND
     1    31    32    1
     2    32    28    1
     3    28    29    2
     4    29    30    1
     5    29     1    1
     6     1     2   ar
     7     2     3   ar
     8     3     4   ar
     9     4     7    1
    10     7     8   ar
    11     8     9   ar
    12     9    10   ar
    13    10    11   ar
    14     4     5   ar
    15     5    12    1
    16    12    13   am
    17    13    14    2
    18    13    16    1
    19    16    17   ar
    20    17    18   ar
    21    18    22    1
    22    22    23   ar
    23    23    24   ar
    24    24    25   ar
    25    25    26   ar
    26    26    27   ar
    27    18    19   ar
    28    19    20   ar
    29    20    21    1
    30     5     6   ar
    31     6     1   ar
    32    11     7   ar
    33    20    16   ar
    34    27    22   ar
    35    12    15    1
