@<TRIPOS>MOLECULE
*****
 29 31 0 0 0
SMALL
GASTEIGER

@<TRIPOS>ATOM
      1 C          63.2308   89.3965   16.1595 C.3     1  UNL1        0.0521
      2 C          63.5429   90.0155   14.8293 C.ar    1  UNL1        0.0606
      3 C          62.7225   89.6590   13.6252 C.ar    1  UNL1        0.0290
      4 C          63.0345   90.2779   12.2950 C.ar    1  UNL1        0.0475
      5 C          64.1671   91.2533   12.1688 C.ar    1  UNL1        0.0309
      6 C          64.4792   91.8722   10.8385 C.ar    1  UNL1        0.0027
      7 C          65.6117   92.8476   10.7124 C.ar    1  UNL1        0.0003
      8 C          66.4322   93.2040   11.9164 C.ar    1  UNL1        0.0060
      9 C          66.1202   92.5851   13.2466 C.ar    1  UNL1        0.0708
     10 C          64.9876   91.6098   13.3728 C.ar    1  UNL1        0.0864
     11 N          64.6755   90.9908   14.7031 N.ar    1  UNL1       -0.2494
     12 C          66.9406   92.9416   14.4507 C.2     1  UNL1        0.2442
     13 N          66.2681   93.2056   15.7652 N.am    1  UNL1       -0.3253
     14 O          68.4337   93.0341   14.3402 O.2     1  UNL1       -0.2703
     15 H          65.2881   93.1449   15.8377 H       1  UNL1        0.1453
     16 H          66.8066   93.4396   16.5554 H       1  UNL1        0.1453
     17 N          62.2140   89.9214   11.0909 N.pl3   1  UNL1       -0.3290
     18 H          61.5883   90.5789   10.7094 H       1  UNL1        0.1471
     19 C          62.3468   88.5634   10.4682 C.3     1  UNL1        0.1142
     20 C          61.3298   88.0928    9.4710 C.ar    1  UNL1        0.0013
     21 C          60.3526   89.0656    8.8804 C.ar    1  UNL1       -0.0027
     22 C          59.3356   88.5951    7.8832 C.ar    1  UNL1       -0.0003
     23 C          59.2959   87.1517    7.4767 C.ar    1  UNL1       -0.0001
     24 C          60.2731   86.1790    8.0673 C.ar    1  UNL1        0.0036
     25 C          61.2901   86.6495    9.0644 C.ar    1  UNL1        0.0691
     26 C          62.2673   85.6767    9.6550 C.3     1  UNL1        0.4183
     27 F          63.2446   84.7040   10.2455 F       1  UNL1       -0.1659
     28 F          61.3468   85.4585   10.8190 F       1  UNL1       -0.1659
     29 F          63.1879   85.8950    8.4910 F       1  UNL1       -0.1659
@<TRIPOS>BOND
     1     1     2    1
     2     2     3   ar
     3     3     4   ar
     4     4    17    1
     5    17    19    1
     6    19    20    1
     7    20    21   ar
     8    21    22   ar
     9    22    23   ar
    10    23    24   ar
    11    24    25   ar
    12    25    26    1
    13    26    27    1
    14    26    28    1
    15    26    29    1
    16     4     5   ar
    17     5     6   ar
    18     6     7   ar
    19     7     8   ar
    20     8     9   ar
    21     9    12    1
    22    12    13   am
    23    12    14    2
    24     9    10   ar
    25    10    11   ar
    26    11     2   ar
    27    25    20   ar
    28    10     5   ar
    29    17    18    1
    30    13    15    1
    31    13    16    1
@<TRIPOS>MOLECULE
*****
 29 31 0 0 0
SMALL
GASTEIGER

@<TRIPOS>ATOM
      1 C          66.3100   93.4748   10.0605 C.3     1  UNL1        0.0521
      2 C          65.4687   92.5899   10.9319 C.ar    1  UNL1        0.0606
      3 C          64.2627   91.9039   10.3620 C.ar    1  UNL1        0.0290
      4 C          63.4214   91.0191   11.2333 C.ar    1  UNL1        0.0475
      5 C          63.7861   90.8203   12.6747 C.ar    1  UNL1        0.0309
      6 C          62.9449   89.9355   13.5461 C.ar    1  UNL1        0.0027
      7 C          63.3096   89.7367   14.9874 C.ar    1  UNL1        0.0003
      8 C          64.5156   90.4228   15.5573 C.ar    1  UNL1        0.0060
      9 C          65.3569   91.3076   14.6860 C.ar    1  UNL1        0.0708
     10 C          64.9921   91.5064   13.2447 C.ar    1  UNL1        0.0864
     11 N          65.8334   92.3912   12.3732 N.ar    1  UNL1       -0.2494
     12 C          66.5629   91.9937   15.2559 C.2     1  UNL1        0.2442
     13 N          67.9105   91.7832   14.6317 N.am    1  UNL1       -0.3253
     14 O          66.4213   92.8903   16.4501 O.2     1  UNL1       -0.2703
     15 H          68.0034   91.1947   13.8480 H       1  UNL1        0.1453
     16 H          68.7020   92.2335   15.0058 H       1  UNL1        0.1453
     17 N          62.2154   90.3330   10.6634 N.pl3   1  UNL1       -0.3290
     18 H          61.3822   90.8381   10.5229 H       1  UNL1        0.1471
     19 C          62.2790   88.8772   10.3074 C.3     1  UNL1        0.1142
     20 C          61.2468   88.2823    9.3960 C.ar    1  UNL1        0.0013
     21 C          60.3189   89.1768    8.6285 C.ar    1  UNL1       -0.0027
     22 C          59.2868   88.5818    7.7171 C.ar    1  UNL1       -0.0003
     23 C          59.1825   87.0923    7.5731 C.ar    1  UNL1       -0.0001
     24 C          60.1104   86.1979    8.3406 C.ar    1  UNL1        0.0036
     25 C          61.1425   86.7929    9.2520 C.ar    1  UNL1        0.0691
     26 C          62.0704   85.8984   10.0195 C.3     1  UNL1        0.4183
     27 F          62.9983   85.0039   10.7869 F       1  UNL1       -0.1659
     28 F          61.1154   85.9000   11.1761 F       1  UNL1       -0.1659
     29 F          63.0255   85.8968    8.8629 F       1  UNL1       -0.1659
@<TRIPOS>BOND
     1     1     2    1
     2     2     3   ar
     3     3     4   ar
     4     4    17    1
     5    17    19    1
     6    19    20    1
     7    20    21   ar
     8    21    22   ar
     9    22    23   ar
    10    23    24   ar
    11    24    25   ar
    12    25    26    1
    13    26    27    1
    14    26    28    1
    15    26    29    1
    16     4     5   ar
    17     5     6   ar
    18     6     7   ar
    19     7     8   ar
    20     8     9   ar
    21     9    12    1
    22    12    13   am
    23    12    14    2
    24     9    10   ar
    25    10    11   ar
    26    11     2   ar
    27    25    20   ar
    28    10     5   ar
    29    17    18    1
    30    13    15    1
    31    13    16    1
@<TRIPOS>MOLECULE
*****
 29 31 0 0 0
SMALL
GASTEIGER

@<TRIPOS>ATOM
      1 C          63.2072   89.2798   16.6669 C.3     1  UNL1        0.0521
      2 C          63.6067   89.8965   15.3591 C.ar    1  UNL1        0.0606
      3 C          62.9738   89.4254   14.0834 C.ar    1  UNL1        0.0290
      4 C          63.3732   90.0421   12.7757 C.ar    1  UNL1        0.0475
      5 C          64.4056   91.1299   12.7437 C.ar    1  UNL1        0.0309
      6 C          64.8050   91.7466   11.4360 C.ar    1  UNL1        0.0027
      7 C          65.8373   92.8343   11.4040 C.ar    1  UNL1        0.0003
      8 C          66.4702   93.3054   12.6798 C.ar    1  UNL1        0.0060
      9 C          66.0708   92.6888   13.9875 C.ar    1  UNL1        0.0708
     10 C          65.0385   91.6010   14.0194 C.ar    1  UNL1        0.0864
     11 N          64.6390   90.9843   15.3272 N.ar    1  UNL1       -0.2494
     12 C          66.7036   93.1599   15.2632 C.2     1  UNL1        0.2442
     13 N          65.9550   93.0470   16.5581 N.am    1  UNL1       -0.3253
     14 O          68.0851   93.7439   15.2441 O.2     1  UNL1       -0.2703
     15 H          65.0483   92.6637   16.5707 H       1  UNL1        0.1453
     16 H          66.3704   93.3562   17.3954 H       1  UNL1        0.1453
     17 N          62.7403   89.5710   11.4999 N.pl3   1  UNL1       -0.3290
     18 H          62.4951   90.2213   10.8027 H       1  UNL1        0.1471
     19 C          62.4811   88.1091   11.2866 C.3     1  UNL1        0.1142
     20 C          61.6165   87.6593   10.1463 C.ar    1  UNL1        0.0013
     21 C          62.0921   86.5732    9.2275 C.ar    1  UNL1       -0.0027
     22 C          61.2275   86.1234    8.0872 C.ar    1  UNL1       -0.0003
     23 C          59.8873   86.7598    7.8658 C.ar    1  UNL1       -0.0001
     24 C          59.4118   87.8458    8.7846 C.ar    1  UNL1        0.0036
     25 C          60.2763   88.2956    9.9248 C.ar    1  UNL1        0.0691
     26 C          59.8007   89.3818   10.8437 C.3     1  UNL1        0.4183
     27 F          59.3251   90.4679   11.7624 F       1  UNL1       -0.1659
     28 F          59.4063   88.3503   11.8588 F       1  UNL1       -0.1659
     29 F          60.1951   90.4132    9.8285 F       1  UNL1       -0.1659
@<TRIPOS>BOND
     1     1     2    1
     2     2     3   ar
     3     3     4   ar
     4     4    17    1
     5    17    19    1
     6    19    20    1
     7    20    21   ar
     8    21    22   ar
     9    22    23   ar
    10    23    24   ar
    11    24    25   ar
    12    25    26    1
    13    26    27    1
    14    26    28    1
    15    26    29    1
    16     4     5   ar
    17     5     6   ar
    18     6     7   ar
    19     7     8   ar
    20     8     9   ar
    21     9    12    1
    22    12    13   am
    23    12    14    2
    24     9    10   ar
    25    10    11   ar
    26    11     2   ar
    27    25    20   ar
    28    10     5   ar
    29    17    18    1
    30    13    15    1
    31    13    16    1
@<TRIPOS>MOLECULE
*****
 29 31 0 0 0
SMALL
GASTEIGER

@<TRIPOS>ATOM
      1 C          64.7154   86.2635   15.0093 C.3     1  UNL1        0.0521
      2 C          64.0944   87.3162   14.1397 C.ar    1  UNL1        0.0606
      3 C          64.0946   88.7497   14.5812 C.ar    1  UNL1        0.0290
      4 C          63.4736   89.8024   13.7117 C.ar    1  UNL1        0.0475
      5 C          62.8523   89.4216   12.4005 C.ar    1  UNL1        0.0309
      6 C          62.2313   90.4743   11.5310 C.ar    1  UNL1        0.0027
      7 C          61.6101   90.0935   10.2199 C.ar    1  UNL1        0.0003
      8 C          61.6099   88.6599    9.7783 C.ar    1  UNL1        0.0060
      9 C          62.2309   87.6072   10.6479 C.ar    1  UNL1        0.0708
     10 C          62.8521   87.9881   11.9590 C.ar    1  UNL1        0.0864
     11 N          63.4731   86.9354   12.8286 N.ar    1  UNL1       -0.2494
     12 C          62.2306   86.1737   10.2063 C.2     1  UNL1        0.2442
     13 N          61.9279   85.0851   11.1929 N.am    1  UNL1       -0.3253
     14 O          62.5331   85.8287    8.7782 O.2     1  UNL1       -0.2703
     15 H          61.7294   85.3115   12.1302 H       1  UNL1        0.1453
     16 H          61.9278   84.1442   10.9030 H       1  UNL1        0.1453
     17 N          63.4738   91.2360   14.1532 N.pl3   1  UNL1       -0.3290
     18 H          62.6221   91.6953   14.3345 H       1  UNL1        0.1471
     19 C          64.7716   91.9696   14.3186 C.3     1  UNL1        0.1142
     20 C          65.7039   92.1167   13.1527 C.ar    1  UNL1        0.0013
     21 C          65.1523   92.2863   11.7681 C.ar    1  UNL1       -0.0027
     22 C          66.0846   92.4333   10.6023 C.ar    1  UNL1       -0.0003
     23 C          67.5685   92.4108   10.8210 C.ar    1  UNL1       -0.0001
     24 C          68.1199   92.2412   12.2056 C.ar    1  UNL1        0.0036
     25 C          67.1877   92.0941   13.3715 C.ar    1  UNL1        0.0691
     26 C          67.7392   91.9245   14.7561 C.3     1  UNL1        0.4183
     27 F          68.2907   91.7549   16.1406 F       1  UNL1       -0.1659
     28 F          68.1848   93.3568   14.7541 F       1  UNL1       -0.1659
     29 F          67.2937   90.4923   14.7581 F       1  UNL1       -0.1659
@<TRIPOS>BOND
     1     1     2    1
     2     2     3   ar
     3     3     4   ar
     4     4    17    1
     5    17    19    1
     6    19    20    1
     7    20    21   ar
     8    21    22   ar
     9    22    23   ar
    10    23    24   ar
    11    24    25   ar
    12    25    26    1
    13    26    27    1
    14    26    28    1
    15    26    29    1
    16     4     5   ar
    17     5     6   ar
    18     6     7   ar
    19     7     8   ar
    20     8     9   ar
    21     9    12    1
    22    12    13   am
    23    12    14    2
    24     9    10   ar
    25    10    11   ar
    26    11     2   ar
    27    25    20   ar
    28    10     5   ar
    29    17    18    1
    30    13    15    1
    31    13    16    1
@<TRIPOS>MOLECULE
*****
 29 31 0 0 0
SMALL
GASTEIGER

@<TRIPOS>ATOM
      1 C          61.1489   88.1238    9.2435 C.3     1  UNL1        0.0521
      2 C          61.9262   88.1309   10.5265 C.ar    1  UNL1        0.0606
      3 C          62.3109   89.4335   11.1631 C.ar    1  UNL1        0.0290
      4 C          63.0881   89.4406   12.4460 C.ar    1  UNL1        0.0475
      5 C          63.4807   88.1451   13.0923 C.ar    1  UNL1        0.0309
      6 C          64.2579   88.1523   14.3752 C.ar    1  UNL1        0.0027
      7 C          64.6505   86.8568   15.0214 C.ar    1  UNL1        0.0003
      8 C          64.2658   85.5542   14.3848 C.ar    1  UNL1        0.0060
      9 C          63.4886   85.5471   13.1019 C.ar    1  UNL1        0.0708
     10 C          63.0960   86.8425   12.4557 C.ar    1  UNL1        0.0864
     11 N          62.3188   86.8355   11.1727 N.ar    1  UNL1       -0.2494
     12 C          63.1039   84.2445   12.4653 C.2     1  UNL1        0.2442
     13 N          63.2753   84.0525   10.9876 N.am    1  UNL1       -0.3253
     14 O          62.5478   83.1340   13.3064 O.2     1  UNL1       -0.2703
     15 H          63.6402   84.7813   10.4355 H       1  UNL1        0.1453
     16 H          63.0228   83.1975   10.5697 H       1  UNL1        0.1453
     17 N          63.4728   90.7432   13.0826 N.pl3   1  UNL1       -0.3290
     18 H          62.8665   91.1738   13.7277 H       1  UNL1        0.1471
     19 C          64.7813   91.3896   12.7364 C.3     1  UNL1        0.1142
     20 C          65.6831   91.8884   13.8265 C.ar    1  UNL1        0.0013
     21 C          65.1993   91.9162   15.2461 C.ar    1  UNL1       -0.0027
     22 C          66.1010   92.4149   16.3361 C.ar    1  UNL1       -0.0003
     23 C          67.4865   92.8859   16.0065 C.ar    1  UNL1       -0.0001
     24 C          67.9702   92.8581   14.5869 C.ar    1  UNL1        0.0036
     25 C          67.0685   92.3593   13.4969 C.ar    1  UNL1        0.0691
     26 C          67.5523   92.3316   12.0773 C.3     1  UNL1        0.4183
     27 F          68.0360   92.3038   10.6577 F       1  UNL1       -0.1659
     28 F          68.5294   91.2500   12.4314 F       1  UNL1       -0.1659
     29 F          66.5752   93.4131   11.7232 F       1  UNL1       -0.1659
@<TRIPOS>BOND
     1     1     2    1
     2     2     3   ar
     3     3     4   ar
     4     4    17    1
     5    17    19    1
     6    19    20    1
     7    20    21   ar
     8    21    22   ar
     9    22    23   ar
    10    23    24   ar
    11    24    25   ar
    12    25    26    1
    13    26    27    1
    14    26    28    1
    15    26    29    1
    16     4     5   ar
    17     5     6   ar
    18     6     7   ar
    19     7     8   ar
    20     8     9   ar
    21     9    12    1
    22    12    13   am
    23    12    14    2
    24     9    10   ar
    25    10    11   ar
    26    11     2   ar
    27    25    20   ar
    28    10     5   ar
    29    17    18    1
    30    13    15    1
    31    13    16    1
@<TRIPOS>MOLECULE
*****
 29 31 0 0 0
SMALL
GASTEIGER

@<TRIPOS>ATOM
      1 C          61.2029   86.0293    9.4566 C.3     1  UNL1        0.0521
      2 C          61.9509   85.9085   10.7512 C.ar    1  UNL1        0.0606
      3 C          62.4743   87.1380   11.4326 C.ar    1  UNL1        0.0290
      4 C          63.2222   87.0173   12.7272 C.ar    1  UNL1        0.0475
      5 C          63.4467   85.6669   13.3405 C.ar    1  UNL1        0.0309
      6 C          64.1947   85.5461   14.6351 C.ar    1  UNL1        0.0027
      7 C          64.4192   84.1958   15.2483 C.ar    1  UNL1        0.0003
      8 C          63.8958   82.9662   14.5670 C.ar    1  UNL1        0.0060
      9 C          63.1479   83.0870   13.2724 C.ar    1  UNL1        0.0708
     10 C          62.9234   84.4373   12.6591 C.ar    1  UNL1        0.0864
     11 N          62.1754   84.5581   11.3645 N.ar    1  UNL1       -0.2494
     12 C          62.6245   81.8574   12.5910 C.2     1  UNL1        0.2442
     13 N          63.0588   81.5325   11.1925 N.am    1  UNL1       -0.3253
     14 O          61.6669   80.9527   13.3082 O.2     1  UNL1       -0.2703
     15 H          63.6873   82.1263   10.7218 H       1  UNL1        0.1453
     16 H          62.7152   80.7255   10.7454 H       1  UNL1        0.1453
     17 N          63.7456   88.2469   13.4085 N.pl3   1  UNL1       -0.3290
     18 H          64.5261   88.1845   14.0052 H       1  UNL1        0.1471
     19 C          63.0797   89.5715   13.1807 C.3     1  UNL1        0.1142
     20 C          63.8228   90.6753   12.4884 C.ar    1  UNL1        0.0013
     21 C          64.9655   91.3586   13.1794 C.ar    1  UNL1       -0.0027
     22 C          65.7086   92.4624   12.4871 C.ar    1  UNL1       -0.0003
     23 C          65.3090   92.8830   11.1038 C.ar    1  UNL1       -0.0001
     24 C          64.1663   92.1997   10.4128 C.ar    1  UNL1        0.0036
     25 C          63.4232   91.0959   11.1052 C.ar    1  UNL1        0.0691
     26 C          62.2805   90.4126   10.4142 C.3     1  UNL1        0.4183
     27 F          61.1378   89.7294    9.7232 F       1  UNL1       -0.1659
     28 F          61.3093   91.2524   11.1898 F       1  UNL1       -0.1659
     29 F          63.2516   89.5728    9.6386 F       1  UNL1       -0.1659
@<TRIPOS>BOND
     1     1     2    1
     2     2     3   ar
     3     3     4   ar
     4     4    17    1
     5    17    19    1
     6    19    20    1
     7    20    21   ar
     8    21    22   ar
     9    22    23   ar
    10    23    24   ar
    11    24    25   ar
    12    25    26    1
    13    26    27    1
    14    26    28    1
    15    26    29    1
    16     4     5   ar
    17     5     6   ar
    18     6     7   ar
    19     7     8   ar
    20     8     9   ar
    21     9    12    1
    22    12    13   am
    23    12    14    2
    24     9    10   ar
    25    10    11   ar
    26    11     2   ar
    27    25    20   ar
    28    10     5   ar
    29    17    18    1
    30    13    15    1
    31    13    16    1
@<TRIPOS>MOLECULE
*****
 29 31 0 0 0
SMALL
GASTEIGER

@<TRIPOS>ATOM
      1 C          62.7119   83.6572   11.2798 C.3     1  UNL1        0.0521
      2 C          62.4383   85.1279   11.1688 C.ar    1  UNL1        0.0606
      3 C          63.0917   86.0862   12.1199 C.ar    1  UNL1        0.0290
      4 C          62.8181   87.5568   12.0090 C.ar    1  UNL1        0.0475
      5 C          61.8911   88.0692   10.9468 C.ar    1  UNL1        0.0309
      6 C          61.6175   89.5398   10.8358 C.ar    1  UNL1        0.0027
      7 C          60.6905   90.0521    9.7737 C.ar    1  UNL1        0.0003
      8 C          60.0371   89.0938    8.8225 C.ar    1  UNL1        0.0060
      9 C          60.3107   87.6232    8.9335 C.ar    1  UNL1        0.0708
     10 C          61.2377   87.1109    9.9956 C.ar    1  UNL1        0.0864
     11 N          61.5113   85.6402   10.1066 N.ar    1  UNL1       -0.2494
     12 C          59.6573   86.6649    7.9823 C.2     1  UNL1        0.2442
     13 N          60.4854   85.6457    7.2575 N.am    1  UNL1       -0.3253
     14 O          58.1757   86.7258    7.7560 O.2     1  UNL1       -0.2703
     15 H          61.4578   85.6057    7.4061 H       1  UNL1        0.1453
     16 H          60.0565   85.0167    6.6333 H       1  UNL1        0.1453
     17 N          63.4715   88.5151   12.9601 N.pl3   1  UNL1       -0.3290
     18 H          63.2816   89.4790   12.8957 H       1  UNL1        0.1471
     19 C          64.4142   88.0049   14.0094 C.3     1  UNL1        0.1142
     20 C          63.8850   87.5589   15.3402 C.ar    1  UNL1        0.0013
     21 C          63.2814   88.5594   16.2808 C.ar    1  UNL1       -0.0027
     22 C          62.7521   88.1134   17.6116 C.ar    1  UNL1       -0.0003
     23 C          62.8265   86.6669   18.0017 C.ar    1  UNL1       -0.0001
     24 C          63.4300   85.6664   17.0611 C.ar    1  UNL1        0.0036
     25 C          63.9593   86.1124   15.7303 C.ar    1  UNL1        0.0691
     26 C          64.5629   85.1119   14.7897 C.3     1  UNL1        0.4183
     27 F          65.1664   84.1114   13.8491 F       1  UNL1       -0.1659
     28 F          65.8988   85.7774   14.9389 F       1  UNL1       -0.1659
     29 F          63.2269   84.4464   14.6404 F       1  UNL1       -0.1659
@<TRIPOS>BOND
     1     1     2    1
     2     2     3   ar
     3     3     4   ar
     4     4    17    1
     5    17    19    1
     6    19    20    1
     7    20    21   ar
     8    21    22   ar
     9    22    23   ar
    10    23    24   ar
    11    24    25   ar
    12    25    26    1
    13    26    27    1
    14    26    28    1
    15    26    29    1
    16     4     5   ar
    17     5     6   ar
    18     6     7   ar
    19     7     8   ar
    20     8     9   ar
    21     9    12    1
    22    12    13   am
    23    12    14    2
    24     9    10   ar
    25    10    11   ar
    26    11     2   ar
    27    25    20   ar
    28    10     5   ar
    29    17    18    1
    30    13    15    1
    31    13    16    1
@<TRIPOS>MOLECULE
*****
 29 31 0 0 0
SMALL
GASTEIGER

@<TRIPOS>ATOM
      1 C          63.3911   89.4830   16.1920 C.3     1  UNL1        0.0521
      2 C          63.6183   90.0918   14.8400 C.ar    1  UNL1        0.0606
      3 C          62.6169   89.8787   13.7437 C.ar    1  UNL1        0.0290
      4 C          62.8441   90.4874   12.3918 C.ar    1  UNL1        0.0475
      5 C          64.0727   91.3092   12.1360 C.ar    1  UNL1        0.0309
      6 C          64.2998   91.9179   10.7841 C.ar    1  UNL1        0.0027
      7 C          65.5284   92.7396   10.5284 C.ar    1  UNL1        0.0003
      8 C          66.5298   92.9527   11.6247 C.ar    1  UNL1        0.0060
      9 C          66.3026   92.3440   12.9767 C.ar    1  UNL1        0.0708
     10 C          65.0741   91.5222   13.2323 C.ar    1  UNL1        0.0864
     11 N          64.8469   90.9135   14.5843 N.ar    1  UNL1       -0.2494
     12 C          67.3040   92.5570   14.0730 C.2     1  UNL1        0.2442
     13 N          68.6615   91.9254   13.9819 N.am    1  UNL1       -0.3253
     14 O          66.9479   93.4016   15.2603 O.2     1  UNL1       -0.2703
     15 H          68.8952   91.3710   13.2026 H       1  UNL1        0.1453
     16 H          69.3187   92.0652   14.7015 H       1  UNL1        0.1453
     17 N          61.8427   90.2744   11.2955 N.pl3   1  UNL1       -0.3290
     18 H          61.7732   90.9242   10.5592 H       1  UNL1        0.1471
     19 C          60.9472   89.0714   11.3210 C.3     1  UNL1        0.1142
     20 C          61.4036   87.7834   10.7024 C.ar    1  UNL1        0.0013
     21 C          62.3073   86.8625   11.4677 C.ar    1  UNL1       -0.0027
     22 C          62.7637   85.5746   10.8490 C.ar    1  UNL1       -0.0003
     23 C          62.3165   85.2074    9.4650 C.ar    1  UNL1       -0.0001
     24 C          61.4129   86.1282    8.6998 C.ar    1  UNL1        0.0036
     25 C          60.9565   87.4162    9.3185 C.ar    1  UNL1        0.0691
     26 C          60.0528   88.3370    8.5532 C.3     1  UNL1        0.4183
     27 F          59.1492   89.2577    7.7879 F       1  UNL1       -0.1659
     28 F          61.1392   89.3705    8.5139 F       1  UNL1       -0.1659
     29 F          58.9665   87.3035    8.5924 F       1  UNL1       -0.1659
@<TRIPOS>BOND
     1     1     2    1
     2     2     3   ar
     3     3     4   ar
     4     4    17    1
     5    17    19    1
     6    19    20    1
     7    20    21   ar
     8    21    22   ar
     9    22    23   ar
    10    23    24   ar
    11    24    25   ar
    12    25    26    1
    13    26    27    1
    14    26    28    1
    15    26    29    1
    16     4     5   ar
    17     5     6   ar
    18     6     7   ar
    19     7     8   ar
    20     8     9   ar
    21     9    12    1
    22    12    13   am
    23    12    14    2
    24     9    10   ar
    25    10    11   ar
    26    11     2   ar
    27    25    20   ar
    28    10     5   ar
    29    17    18    1
    30    13    15    1
    31    13    16    1
@<TRIPOS>MOLECULE
*****
 29 31 0 0 0
SMALL
GASTEIGER

@<TRIPOS>ATOM
      1 C          61.2575   86.3142    9.4465 C.3     1  UNL1        0.0521
      2 C          61.9991   86.8530   10.6339 C.ar    1  UNL1        0.0606
      3 C          62.3780   85.9375   11.7602 C.ar    1  UNL1        0.0290
      4 C          63.1195   86.4763   12.9475 C.ar    1  UNL1        0.0475
      5 C          63.4822   87.9305   13.0087 C.ar    1  UNL1        0.0309
      6 C          64.2237   88.4693   14.1960 C.ar    1  UNL1        0.0027
      7 C          64.5864   89.9235   14.2571 C.ar    1  UNL1        0.0003
      8 C          64.2074   90.8389   13.1309 C.ar    1  UNL1        0.0060
      9 C          63.4659   90.3002   11.9436 C.ar    1  UNL1        0.0708
     10 C          63.1033   88.8460   11.8824 C.ar    1  UNL1        0.0864
     11 N          62.3617   88.3072   10.6951 N.ar    1  UNL1       -0.2494
     12 C          63.0870   91.2156   10.8173 C.2     1  UNL1        0.2442
     13 N          61.7393   91.0912   10.1707 N.am    1  UNL1       -0.3253
     14 O          64.0558   92.2555   10.3377 O.2     1  UNL1       -0.2703
     15 H          61.1034   90.4087   10.4855 H       1  UNL1        0.1453
     16 H          61.4906   91.6921    9.4316 H       1  UNL1        0.1453
     17 N          63.4984   85.5608   14.0737 N.pl3   1  UNL1       -0.3290
     18 H          63.3218   85.8268   15.0050 H       1  UNL1        0.1471
     19 C          64.1465   84.2401   13.7811 C.3     1  UNL1        0.1142
     20 C          63.3025   83.0115   13.6126 C.ar    1  UNL1        0.0013
     21 C          62.4186   82.5494   14.7330 C.ar    1  UNL1       -0.0027
     22 C          61.5747   81.3208   14.5646 C.ar    1  UNL1       -0.0003
     23 C          61.6147   80.5544   13.2758 C.ar    1  UNL1       -0.0001
     24 C          62.4986   81.0165   12.1555 C.ar    1  UNL1        0.0036
     25 C          63.3425   82.2450   12.3239 C.ar    1  UNL1        0.0691
     26 C          64.2264   82.7071   11.2035 C.3     1  UNL1        0.4183
     27 F          65.1103   83.1692   10.0831 F       1  UNL1       -0.1659
     28 F          65.4224   82.1506   11.9175 F       1  UNL1       -0.1659
     29 F          63.0304   83.2637   10.4895 F       1  UNL1       -0.1659
@<TRIPOS>BOND
     1     1     2    1
     2     2     3   ar
     3     3     4   ar
     4     4    17    1
     5    17    19    1
     6    19    20    1
     7    20    21   ar
     8    21    22   ar
     9    22    23   ar
    10    23    24   ar
    11    24    25   ar
    12    25    26    1
    13    26    27    1
    14    26    28    1
    15    26    29    1
    16     4     5   ar
    17     5     6   ar
    18     6     7   ar
    19     7     8   ar
    20     8     9   ar
    21     9    12    1
    22    12    13   am
    23    12    14    2
    24     9    10   ar
    25    10    11   ar
    26    11     2   ar
    27    25    20   ar
    28    10     5   ar
    29    17    18    1
    30    13    15    1
    31    13    16    1
