@<TRIPOS>MOLECULE
*****
 35 39 0 0 0
SMALL
GASTEIGER

@<TRIPOS>ATOM
      1 C          62.5526   88.9834   11.3615 C.ar    1  UNL1        0.1453
      2 C          62.9500   90.1723   10.5376 C.ar    1  UNL1        0.0375
      3 C          63.8750   91.2056   11.1092 C.ar    1  UNL1        0.0033
      4 C          64.4025   91.0501   12.5047 C.ar    1  UNL1        0.0046
      5 C          65.3275   92.0834   13.0764 C.ar    1  UNL1        0.0537
      6 C          65.8551   91.9279   14.4719 C.ar    1  UNL1        0.0045
      7 C          65.4576   90.7391   15.2958 C.ar    1  UNL1        0.0001
      8 C          64.5327   89.7058   14.7242 C.ar    1  UNL1        0.0001
      9 C          64.0052   89.8613   13.3286 C.ar    1  UNL1        0.0032
     10 C          63.0802   88.8279   12.7570 C.ar    1  UNL1        0.0375
     11 C          65.7249   93.2722   12.2525 C.2     1  UNL1        0.2495
     12 O          66.1335   94.5487   12.9259 O.2     1  UNL1       -0.2698
     13 N          65.7136   93.1845   10.7551 N.am    1  UNL1       -0.2792
     14 H          65.4454   92.3466   10.3131 H       1  UNL1        0.1552
     15 C          66.1110   94.3733    9.9311 C.ar    1  UNL1        0.0700
     16 C          67.2564   94.2693    8.9682 C.ar    1  UNL1        0.0179
     17 C          67.6538   95.4580    8.1442 C.ar    1  UNL1        0.0220
     18 C          66.9058   96.7507    8.2832 C.ar    1  UNL1        0.0990
     19 N          65.7604   96.8547    9.2461 N.ar    1  UNL1       -0.2410
     20 C          65.3630   95.6660   10.0701 C.ar    1  UNL1        0.1135
     21 O          61.6277   87.9502   10.7899 O.3     1  UNL1       -0.4534
     22 C          63.2909   83.2367   12.8555 C.ar    1  UNL1        0.1739
     23 C          63.4804   83.1305   11.3713 C.ar    1  UNL1        0.0592
     24 C          63.1119   84.2823   10.4838 C.ar    1  UNL1        0.0875
     25 N          63.3013   84.1760    8.9997 N.ar    1  UNL1       -0.2435
     26 C          62.9329   85.3278    8.1122 C.ar    1  UNL1        0.1020
     27 C          62.3750   86.5859    8.7090 C.ar    1  UNL1        0.0581
     28 C          62.1856   86.6921   10.1931 C.ar    1  UNL1        0.1483
     29 C          62.5540   85.5403   11.0806 C.ar    1  UNL1        0.0554
     30 C          62.3646   85.6465   12.5648 C.ar    1  UNL1        0.0446
     31 C          62.7330   84.4947   13.4522 C.ar    1  UNL1        0.1726
     32 C          62.8057   80.8517   13.7645 C.3     1  UNL1        0.2526
     33 O          63.6594   82.0849   13.7430 O.3     1  UNL1       -0.4683
     34 O          62.5436   84.6009   14.9365 O.3     1  UNL1       -0.4684
     35 C          63.5478   85.3408   15.7697 C.3     1  UNL1        0.2526
@<TRIPOS>BOND
     1    32    33    1
     2    33    22    1
     3    22    23   ar
     4    23    24   ar
     5    24    25   ar
     6    25    26   ar
     7    26    27   ar
     8    27    28   ar
     9    28    21    1
    10    21     1    1
    11     1     2   ar
    12     2     3   ar
    13     3     4   ar
    14     4     5   ar
    15     5    11    1
    16    11    12    2
    17    11    13   am
    18    13    15    1
    19    15    16   ar
    20    16    17   ar
    21    17    18   ar
    22    18    19   ar
    23    19    20   ar
    24     5     6   ar
    25     6     7   ar
    26     7     8   ar
    27     8     9   ar
    28     9    10   ar
    29    28    29   ar
    30    29    30   ar
    31    30    31   ar
    32    31    34    1
    33    34    35    1
    34    31    22   ar
    35    29    24   ar
    36    10     1   ar
    37     9     4   ar
    38    20    15   ar
    39    13    14    1
@<TRIPOS>MOLECULE
*****
 35 39 0 0 0
SMALL
GASTEIGER

@<TRIPOS>ATOM
      1 C          63.9464   90.1893   15.4725 C.ar    1  UNL1        0.1453
      2 C          64.3028   89.3085   14.3118 C.ar    1  UNL1        0.0375
      3 C          64.1108   87.8241   14.4100 C.ar    1  UNL1        0.0033
      4 C          63.5623   87.2204   15.6688 C.ar    1  UNL1        0.0046
      5 C          63.3703   85.7359   15.7670 C.ar    1  UNL1        0.0537
      6 C          62.8218   85.1322   17.0259 C.ar    1  UNL1        0.0045
      7 C          62.4654   86.0130   18.1866 C.ar    1  UNL1        0.0001
      8 C          62.6575   87.4974   18.0884 C.ar    1  UNL1        0.0001
      9 C          63.2059   88.1011   16.8296 C.ar    1  UNL1        0.0032
     10 C          63.3979   89.5856   16.7314 C.ar    1  UNL1        0.0375
     11 C          63.7267   84.8552   14.6063 C.2     1  UNL1        0.2495
     12 O          65.1570   84.4719   14.3671 O.2     1  UNL1       -0.2698
     13 N          62.6528   84.3578   13.6847 N.am    1  UNL1       -0.2792
     14 H          61.7140   84.6094   13.8417 H       1  UNL1        0.1552
     15 C          63.0092   83.4771   12.5240 C.ar    1  UNL1        0.0700
     16 C          63.6060   84.0749   11.2844 C.ar    1  UNL1        0.0179
     17 C          63.9624   83.1943   10.1237 C.ar    1  UNL1        0.0220
     18 C          63.7219   81.7158   10.2025 C.ar    1  UNL1        0.0990
     19 N          63.1251   81.1180   11.4420 N.ar    1  UNL1       -0.2410
     20 C          62.7688   81.9986   12.6028 C.ar    1  UNL1        0.1135
     21 O          64.1384   91.6736   15.3744 O.3     1  UNL1       -0.4534
     22 C          66.6310   92.9399   10.7448 C.ar    1  UNL1        0.1739
     23 C          67.6005   93.2659   11.8419 C.ar    1  UNL1        0.0592
     24 C          67.2198   93.0308   13.2736 C.ar    1  UNL1        0.0875
     25 N          68.1893   93.3569   14.3708 N.ar    1  UNL1       -0.2435
     26 C          67.8085   93.1218   15.8024 C.ar    1  UNL1        0.1020
     27 C          66.4582   92.5608   16.1370 C.ar    1  UNL1        0.0581
     28 C          65.4887   92.2347   15.0398 C.ar    1  UNL1        0.1483
     29 C          65.8695   92.4698   13.6082 C.ar    1  UNL1        0.0554
     30 C          64.9000   92.1437   12.5110 C.ar    1  UNL1        0.0446
     31 C          65.2808   92.3788   11.0793 C.ar    1  UNL1        0.1726
     32 C          68.3779   92.7901    8.8274 C.3     1  UNL1        0.2526
     33 O          67.0118   93.1749    9.3130 O.3     1  UNL1       -0.4683
     34 O          64.3112   92.0527    9.9821 O.3     1  UNL1       -0.4684
     35 C          63.0962   91.2239   10.2767 C.3     1  UNL1        0.2526
@<TRIPOS>BOND
     1    32    33    1
     2    33    22    1
     3    22    23   ar
     4    23    24   ar
     5    24    25   ar
     6    25    26   ar
     7    26    27   ar
     8    27    28   ar
     9    28    21    1
    10    21     1    1
    11     1     2   ar
    12     2     3   ar
    13     3     4   ar
    14     4     5   ar
    15     5    11    1
    16    11    12    2
    17    11    13   am
    18    13    15    1
    19    15    16   ar
    20    16    17   ar
    21    17    18   ar
    22    18    19   ar
    23    19    20   ar
    24     5     6   ar
    25     6     7   ar
    26     7     8   ar
    27     8     9   ar
    28     9    10   ar
    29    28    29   ar
    30    29    30   ar
    31    30    31   ar
    32    31    34    1
    33    34    35    1
    34    31    22   ar
    35    29    24   ar
    36    10     1   ar
    37     9     4   ar
    38    20    15   ar
    39    13    14    1
@<TRIPOS>MOLECULE
*****
 35 39 0 0 0
SMALL
GASTEIGER

@<TRIPOS>ATOM
      1 C          62.5963   90.3772   11.0607 C.ar    1  UNL1        0.1453
      2 C          63.2503   89.2151   11.7476 C.ar    1  UNL1        0.0375
      3 C          62.9198   87.8133   11.3285 C.ar    1  UNL1        0.0033
      4 C          61.9353   87.5736   10.2224 C.ar    1  UNL1        0.0046
      5 C          61.6048   86.1717    9.8033 C.ar    1  UNL1        0.0537
      6 C          60.6204   85.9320    8.6972 C.ar    1  UNL1        0.0045
      7 C          59.9664   87.0942    8.0103 C.ar    1  UNL1        0.0001
      8 C          60.2968   88.4959    8.4295 C.ar    1  UNL1        0.0001
      9 C          61.2813   88.7357    9.5355 C.ar    1  UNL1        0.0032
     10 C          61.6118   90.1375    9.9547 C.ar    1  UNL1        0.0375
     11 C          62.2588   85.0097   10.4901 C.2     1  UNL1        0.2495
     12 O          63.3017   84.2045    9.7730 O.2     1  UNL1       -0.2698
     13 N          61.8700   84.6527   11.8942 N.am    1  UNL1       -0.2792
     14 H          61.1855   85.1811   12.3648 H       1  UNL1        0.1552
     15 C          62.5240   83.4906   12.5811 C.ar    1  UNL1        0.0700
     16 C          62.4451   82.1204   11.9759 C.ar    1  UNL1        0.0179
     17 C          63.0991   80.9583   12.6628 C.ar    1  UNL1        0.0220
     18 C          63.8319   81.1664   13.9549 C.ar    1  UNL1        0.0990
     19 N          63.9107   82.5366   14.5601 N.ar    1  UNL1       -0.2410
     20 C          63.2568   83.6987   13.8733 C.ar    1  UNL1        0.1135
     21 O          62.9268   91.7790   11.4799 O.3     1  UNL1       -0.4534
     22 C          66.7407   92.3147   15.2769 C.ar    1  UNL1        0.1739
     23 C          67.3679   92.7647   13.9908 C.ar    1  UNL1        0.0592
     24 C          66.5713   92.7433   12.7200 C.ar    1  UNL1        0.0875
     25 N          67.1985   93.1933   11.4339 N.ar    1  UNL1       -0.2435
     26 C          66.4018   93.1719   10.1632 C.ar    1  UNL1        0.1020
     27 C          64.9779   92.7005   10.1785 C.ar    1  UNL1        0.0581
     28 C          64.3507   92.2504   11.4646 C.ar    1  UNL1        0.1483
     29 C          65.1473   92.2719   12.7353 C.ar    1  UNL1        0.0554
     30 C          64.5201   91.8219   14.0215 C.ar    1  UNL1        0.0446
     31 C          65.3168   91.8433   15.2922 C.ar    1  UNL1        0.1726
     32 C          69.0348   92.4032   16.4931 C.3     1  UNL1        0.2526
     33 O          67.5373   92.3361   16.5477 O.3     1  UNL1       -0.4683
     34 O          64.6895   91.3933   16.5784 O.3     1  UNL1       -0.4684
     35 C          63.5384   90.4318   16.5553 C.3     1  UNL1        0.2526
@<TRIPOS>BOND
     1    32    33    1
     2    33    22    1
     3    22    23   ar
     4    23    24   ar
     5    24    25   ar
     6    25    26   ar
     7    26    27   ar
     8    27    28   ar
     9    28    21    1
    10    21     1    1
    11     1     2   ar
    12     2     3   ar
    13     3     4   ar
    14     4     5   ar
    15     5    11    1
    16    11    12    2
    17    11    13   am
    18    13    15    1
    19    15    16   ar
    20    16    17   ar
    21    17    18   ar
    22    18    19   ar
    23    19    20   ar
    24     5     6   ar
    25     6     7   ar
    26     7     8   ar
    27     8     9   ar
    28     9    10   ar
    29    28    29   ar
    30    29    30   ar
    31    30    31   ar
    32    31    34    1
    33    34    35    1
    34    31    22   ar
    35    29    24   ar
    36    10     1   ar
    37     9     4   ar
    38    20    15   ar
    39    13    14    1
@<TRIPOS>MOLECULE
*****
 35 39 0 0 0
SMALL
GASTEIGER

@<TRIPOS>ATOM
      1 C          64.2416   90.0047   14.9518 C.ar    1  UNL1        0.1453
      2 C          64.5005   88.9217   13.9467 C.ar    1  UNL1        0.0375
      3 C          64.1939   87.4934   14.2875 C.ar    1  UNL1        0.0033
      4 C          63.6285   87.1482   15.6332 C.ar    1  UNL1        0.0046
      5 C          63.3219   85.7199   15.9739 C.ar    1  UNL1        0.0537
      6 C          62.7564   85.3746   17.3197 C.ar    1  UNL1        0.0045
      7 C          62.4975   86.4576   18.3247 C.ar    1  UNL1        0.0001
      8 C          62.8041   87.8859   17.9840 C.ar    1  UNL1        0.0001
      9 C          63.3696   88.2311   16.6382 C.ar    1  UNL1        0.0032
     10 C          63.6762   89.6594   16.2975 C.ar    1  UNL1        0.0375
     11 C          63.5808   84.6369   14.9689 C.2     1  UNL1        0.2495
     12 O          64.7950   83.7661   15.1006 O.2     1  UNL1       -0.2698
     13 N          62.6254   84.4247   13.8322 N.am    1  UNL1       -0.2792
     14 H          61.8284   84.9962   13.7458 H       1  UNL1        0.1552
     15 C          62.8842   83.3417   12.8271 C.ar    1  UNL1        0.0700
     16 C          63.6030   83.6603   11.5496 C.ar    1  UNL1        0.0179
     17 C          63.8618   82.5774   10.5445 C.ar    1  UNL1        0.0220
     18 C          63.4019   81.1759   10.8169 C.ar    1  UNL1        0.0990
     19 N          62.6832   80.8573   12.0943 N.ar    1  UNL1       -0.2410
     20 C          62.4243   81.9402   13.0994 C.ar    1  UNL1        0.1135
     21 O          64.5482   91.4329   14.6111 O.3     1  UNL1       -0.4534
     22 C          61.7679   90.2777   10.1182 C.ar    1  UNL1        0.1739
     23 C          62.8569   91.2217    9.7024 C.ar    1  UNL1        0.0592
     24 C          63.8242   91.7466   10.7217 C.ar    1  UNL1        0.0875
     25 N          64.9132   92.6906   10.3058 N.ar    1  UNL1       -0.2435
     26 C          65.8805   93.2154   11.3250 C.ar    1  UNL1        0.1020
     27 C          65.7588   92.7962   12.7601 C.ar    1  UNL1        0.0581
     28 C          64.6699   91.8521   13.1760 C.ar    1  UNL1        0.1483
     29 C          63.7026   91.3273   12.1567 C.ar    1  UNL1        0.0554
     30 C          62.6135   90.3833   12.5726 C.ar    1  UNL1        0.0446
     31 C          61.6462   89.8585   11.5533 C.ar    1  UNL1        0.1726
     32 C          60.6489   88.2737    8.9008 C.3     1  UNL1        0.2526
     33 O          60.8005   89.7528    9.0990 O.3     1  UNL1       -0.4683
     34 O          60.5572   88.9144   11.9691 O.3     1  UNL1       -0.4684
     35 C          59.1772   89.4350   12.2423 C.3     1  UNL1        0.2526
@<TRIPOS>BOND
     1    32    33    1
     2    33    22    1
     3    22    23   ar
     4    23    24   ar
     5    24    25   ar
     6    25    26   ar
     7    26    27   ar
     8    27    28   ar
     9    28    21    1
    10    21     1    1
    11     1     2   ar
    12     2     3   ar
    13     3     4   ar
    14     4     5   ar
    15     5    11    1
    16    11    12    2
    17    11    13   am
    18    13    15    1
    19    15    16   ar
    20    16    17   ar
    21    17    18   ar
    22    18    19   ar
    23    19    20   ar
    24     5     6   ar
    25     6     7   ar
    26     7     8   ar
    27     8     9   ar
    28     9    10   ar
    29    28    29   ar
    30    29    30   ar
    31    30    31   ar
    32    31    34    1
    33    34    35    1
    34    31    22   ar
    35    29    24   ar
    36    10     1   ar
    37     9     4   ar
    38    20    15   ar
    39    13    14    1
@<TRIPOS>MOLECULE
*****
 35 39 0 0 0
SMALL
GASTEIGER

@<TRIPOS>ATOM
      1 C          63.8831   89.4885   14.6548 C.ar    1  UNL1        0.1453
      2 C          63.5037   89.2323   13.2263 C.ar    1  UNL1        0.0375
      3 C          63.3701   87.8244   12.7267 C.ar    1  UNL1        0.0033
      4 C          63.6158   86.6724   13.6555 C.ar    1  UNL1        0.0046
      5 C          63.4822   85.2644   13.1558 C.ar    1  UNL1        0.0537
      6 C          63.7280   84.1125   14.0846 C.ar    1  UNL1        0.0045
      7 C          64.1074   84.3686   15.5131 C.ar    1  UNL1        0.0001
      8 C          64.2410   85.7766   16.0127 C.ar    1  UNL1        0.0001
      9 C          63.9952   86.9285   15.0839 C.ar    1  UNL1        0.0032
     10 C          64.1289   88.3366   15.5836 C.ar    1  UNL1        0.0375
     11 C          63.1028   85.0083   11.7274 C.2     1  UNL1        0.2495
     12 O          63.4663   83.7066   11.0766 O.2     1  UNL1       -0.2698
     13 N          62.3599   86.0539   10.9497 N.am    1  UNL1       -0.2792
     14 H          62.1214   86.9082   11.3768 H       1  UNL1        0.1552
     15 C          61.9805   85.7979    9.5212 C.ar    1  UNL1        0.0700
     16 C          62.9740   85.1840    8.5798 C.ar    1  UNL1        0.0179
     17 C          62.5946   84.9279    7.1514 C.ar    1  UNL1        0.0220
     18 C          61.2218   85.2858    6.6643 C.ar    1  UNL1        0.0990
     19 N          60.2283   85.8996    7.6057 N.ar    1  UNL1       -0.2410
     20 C          60.6077   86.1557    9.0342 C.ar    1  UNL1        0.1135
     21 O          64.0167   90.8965   15.1544 O.3     1  UNL1       -0.4534
     22 C          66.2012   93.1297   10.7396 C.ar    1  UNL1        0.1739
     23 C          67.1523   93.4145   11.8639 C.ar    1  UNL1        0.0592
     24 C          66.8440   92.9274   13.2488 C.ar    1  UNL1        0.0875
     25 N          67.7952   93.2122   14.3731 N.ar    1  UNL1       -0.2435
     26 C          67.4869   92.7251   15.7578 C.ar    1  UNL1        0.1020
     27 C          66.2274   91.9532   16.0183 C.ar    1  UNL1        0.0581
     28 C          65.2762   91.6684   14.8940 C.ar    1  UNL1        0.1483
     29 C          65.5845   92.1555   13.5092 C.ar    1  UNL1        0.0554
     30 C          64.6333   91.8707   12.3848 C.ar    1  UNL1        0.0446
     31 C          64.9417   92.3578   11.0000 C.ar    1  UNL1        0.1726
     32 C          67.6388   94.5787    9.1321 C.3     1  UNL1        0.2526
     33 O          66.5095   93.6169    9.3547 O.3     1  UNL1       -0.4683
     34 O          63.9905   92.0731    9.8756 O.3     1  UNL1       -0.4684
     35 C          62.8707   91.0942   10.0703 C.3     1  UNL1        0.2526
@<TRIPOS>BOND
     1    32    33    1
     2    33    22    1
     3    22    23   ar
     4    23    24   ar
     5    24    25   ar
     6    25    26   ar
     7    26    27   ar
     8    27    28   ar
     9    28    21    1
    10    21     1    1
    11     1     2   ar
    12     2     3   ar
    13     3     4   ar
    14     4     5   ar
    15     5    11    1
    16    11    12    2
    17    11    13   am
    18    13    15    1
    19    15    16   ar
    20    16    17   ar
    21    17    18   ar
    22    18    19   ar
    23    19    20   ar
    24     5     6   ar
    25     6     7   ar
    26     7     8   ar
    27     8     9   ar
    28     9    10   ar
    29    28    29   ar
    30    29    30   ar
    31    30    31   ar
    32    31    34    1
    33    34    35    1
    34    31    22   ar
    35    29    24   ar
    36    10     1   ar
    37     9     4   ar
    38    20    15   ar
    39    13    14    1
@<TRIPOS>MOLECULE
*****
 35 39 0 0 0
SMALL
GASTEIGER

@<TRIPOS>ATOM
      1 C          63.5173   89.7913   13.1580 C.ar    1  UNL1        0.1453
      2 C          63.5349   90.7913   12.0401 C.ar    1  UNL1        0.0375
      3 C          64.4653   91.9664   12.0996 C.ar    1  UNL1        0.0033
      4 C          65.3780   92.1416   13.2770 C.ar    1  UNL1        0.0046
      5 C          66.3083   93.3168   13.3365 C.ar    1  UNL1        0.0537
      6 C          67.2211   93.4919   14.5138 C.ar    1  UNL1        0.0045
      7 C          67.2035   92.4918   15.6318 C.ar    1  UNL1        0.0001
      8 C          66.2732   91.3167   15.5722 C.ar    1  UNL1        0.0001
      9 C          65.3604   91.1416   14.3948 C.ar    1  UNL1        0.0032
     10 C          64.4301   89.9664   14.3354 C.ar    1  UNL1        0.0375
     11 C          66.3259   94.3167   12.2186 C.2     1  UNL1        0.2495
     12 O          66.1616   95.7777   12.5165 O.2     1  UNL1       -0.2698
     13 N          66.5078   93.8558   10.8028 N.am    1  UNL1       -0.2792
     14 H          66.6156   92.8970   10.6073 H       1  UNL1        0.1552
     15 C          66.5253   94.8558    9.6849 C.ar    1  UNL1        0.0700
     16 C          65.4149   95.8560    9.5558 C.ar    1  UNL1        0.0179
     17 C          65.4325   96.8560    8.4379 C.ar    1  UNL1        0.0220
     18 C          66.5604   96.8557    7.4491 C.ar    1  UNL1        0.0990
     19 N          67.6708   95.8556    7.5782 N.ar    1  UNL1       -0.2410
     20 C          67.6533   94.8556    8.6961 C.ar    1  UNL1        0.1135
     21 O          62.5870   88.6161   13.0985 O.3     1  UNL1       -0.4534
     22 C          63.5848   83.5424   11.5139 C.ar    1  UNL1        0.1739
     23 C          63.0012   84.2430   10.3229 C.ar    1  UNL1        0.0592
     24 C          62.6058   85.6866   10.4213 C.ar    1  UNL1        0.0875
     25 N          62.0221   86.3872    9.2303 N.ar    1  UNL1       -0.2435
     26 C          61.6268   87.8308    9.3287 C.ar    1  UNL1        0.1020
     27 C          61.8151   88.5738   10.6181 C.ar    1  UNL1        0.0581
     28 C          62.3987   87.8732   11.8091 C.ar    1  UNL1        0.1483
     29 C          62.7941   86.4296   11.7107 C.ar    1  UNL1        0.0554
     30 C          63.3778   85.7289   12.9017 C.ar    1  UNL1        0.0446
     31 C          63.7731   84.2853   12.8032 C.ar    1  UNL1        0.1726
     32 C          63.2264   81.1750   10.5052 C.3     1  UNL1        0.2526
     33 O          63.9802   82.0987   11.4155 O.3     1  UNL1       -0.4683
     34 O          64.3568   83.5846   13.9943 O.3     1  UNL1       -0.4684
     35 C          63.5624   83.4714   15.2616 C.3     1  UNL1        0.2526
@<TRIPOS>BOND
     1    32    33    1
     2    33    22    1
     3    22    23   ar
     4    23    24   ar
     5    24    25   ar
     6    25    26   ar
     7    26    27   ar
     8    27    28   ar
     9    28    21    1
    10    21     1    1
    11     1     2   ar
    12     2     3   ar
    13     3     4   ar
    14     4     5   ar
    15     5    11    1
    16    11    12    2
    17    11    13   am
    18    13    15    1
    19    15    16   ar
    20    16    17   ar
    21    17    18   ar
    22    18    19   ar
    23    19    20   ar
    24     5     6   ar
    25     6     7   ar
    26     7     8   ar
    27     8     9   ar
    28     9    10   ar
    29    28    29   ar
    30    29    30   ar
    31    30    31   ar
    32    31    34    1
    33    34    35    1
    34    31    22   ar
    35    29    24   ar
    36    10     1   ar
    37     9     4   ar
    38    20    15   ar
    39    13    14    1
@<TRIPOS>MOLECULE
*****
 35 39 0 0 0
SMALL
GASTEIGER

@<TRIPOS>ATOM
      1 C          62.9797   89.7224   12.4359 C.ar    1  UNL1        0.1453
      2 C          63.2159   90.7813   11.4000 C.ar    1  UNL1        0.0375
      3 C          64.2151   91.8705   11.6550 C.ar    1  UNL1        0.0033
      4 C          64.9783   91.9008   12.9460 C.ar    1  UNL1        0.0046
      5 C          65.9776   92.9901   13.2011 C.ar    1  UNL1        0.0537
      6 C          66.7407   93.0205   14.4921 C.ar    1  UNL1        0.0045
      7 C          66.5045   91.9616   15.5281 C.ar    1  UNL1        0.0001
      8 C          65.5053   90.8724   15.2730 C.ar    1  UNL1        0.0001
      9 C          64.7421   90.8421   13.9820 C.ar    1  UNL1        0.0032
     10 C          63.7428   89.7528   13.7269 C.ar    1  UNL1        0.0375
     11 C          66.2137   94.0489   12.1652 C.2     1  UNL1        0.2495
     12 O          66.3808   95.4805   12.5805 O.2     1  UNL1       -0.2698
     13 N          66.2828   93.6760   10.7139 N.am    1  UNL1       -0.2792
     14 H          66.1731   92.7364   10.4414 H       1  UNL1        0.1552
     15 C          66.5189   94.7348    9.6779 C.ar    1  UNL1        0.0700
     16 C          65.4796   95.7879    9.4314 C.ar    1  UNL1        0.0179
     17 C          65.7157   96.8467    8.3955 C.ar    1  UNL1        0.0220
     18 C          66.9911   96.8523    7.6060 C.ar    1  UNL1        0.0990
     19 N          68.0304   95.7992    7.8525 N.ar    1  UNL1       -0.2410
     20 C          67.7943   94.7404    8.8885 C.ar    1  UNL1        0.1135
     21 O          61.9804   88.6333   12.1808 O.3     1  UNL1       -0.4534
     22 C          61.9671   85.2426    7.9674 C.ar    1  UNL1        0.1739
     23 C          60.9733   86.3172    7.6397 C.ar    1  UNL1        0.0592
     24 C          60.7281   87.4336    8.6112 C.ar    1  UNL1        0.0875
     25 N          59.7342   88.5082    8.2835 N.ar    1  UNL1       -0.2435
     26 C          59.4890   89.6245    9.2549 C.ar    1  UNL1        0.1020
     27 C          60.2378   89.6662   10.5540 C.ar    1  UNL1        0.0581
     28 C          61.2316   88.5916   10.8817 C.ar    1  UNL1        0.1483
     29 C          61.4768   87.4753    9.9103 C.ar    1  UNL1        0.0554
     30 C          62.4707   86.4006   10.2379 C.ar    1  UNL1        0.0446
     31 C          62.7159   85.2843    9.2665 C.ar    1  UNL1        0.1726
     32 C          62.1805   84.3953    5.5206 C.3     1  UNL1        0.2526
     33 O          62.2123   84.1262    6.9959 O.3     1  UNL1       -0.4683
     34 O          63.7098   84.2096    9.5941 O.3     1  UNL1       -0.4684
     35 C          63.5354   83.3784   10.8305 C.3     1  UNL1        0.2526
@<TRIPOS>BOND
     1    32    33    1
     2    33    22    1
     3    22    23   ar
     4    23    24   ar
     5    24    25   ar
     6    25    26   ar
     7    26    27   ar
     8    27    28   ar
     9    28    21    1
    10    21     1    1
    11     1     2   ar
    12     2     3   ar
    13     3     4   ar
    14     4     5   ar
    15     5    11    1
    16    11    12    2
    17    11    13   am
    18    13    15    1
    19    15    16   ar
    20    16    17   ar
    21    17    18   ar
    22    18    19   ar
    23    19    20   ar
    24     5     6   ar
    25     6     7   ar
    26     7     8   ar
    27     8     9   ar
    28     9    10   ar
    29    28    29   ar
    30    29    30   ar
    31    30    31   ar
    32    31    34    1
    33    34    35    1
    34    31    22   ar
    35    29    24   ar
    36    10     1   ar
    37     9     4   ar
    38    20    15   ar
    39    13    14    1
@<TRIPOS>MOLECULE
*****
 35 39 0 0 0
SMALL
GASTEIGER

@<TRIPOS>ATOM
      1 C          62.7132   89.0257   12.8096 C.ar    1  UNL1        0.1453
      2 C          63.4481   89.7683   11.7332 C.ar    1  UNL1        0.0375
      3 C          64.3896   90.8780   12.0965 C.ar    1  UNL1        0.0033
      4 C          64.5964   91.2451   13.5361 C.ar    1  UNL1        0.0046
      5 C          65.5380   92.3548   13.8994 C.ar    1  UNL1        0.0537
      6 C          65.7448   92.7219   15.3390 C.ar    1  UNL1        0.0045
      7 C          65.0099   91.9792   16.4154 C.ar    1  UNL1        0.0001
      8 C          64.0683   90.8695   16.0521 C.ar    1  UNL1        0.0001
      9 C          63.8616   90.5025   14.6124 C.ar    1  UNL1        0.0032
     10 C          62.9199   89.3927   14.2492 C.ar    1  UNL1        0.0375
     11 C          66.2729   93.0974   12.8230 C.2     1  UNL1        0.2495
     12 O          67.7721   93.0711   12.7832 O.2     1  UNL1       -0.2698
     13 N          65.5084   93.8663   11.7865 N.am    1  UNL1       -0.2792
     14 H          64.5244   93.8836   11.8127 H       1  UNL1        0.1552
     15 C          66.2433   94.6090   10.7101 C.ar    1  UNL1        0.0700
     16 C          66.9321   93.8524    9.6132 C.ar    1  UNL1        0.0179
     17 C          67.6668   94.5950    8.5368 C.ar    1  UNL1        0.0220
     18 C          67.7128   96.0941    8.5574 C.ar    1  UNL1        0.0990
     19 N          67.0240   96.8506    9.6543 N.ar    1  UNL1       -0.2410
     20 C          66.2892   96.1081   10.7306 C.ar    1  UNL1        0.1135
     21 O          61.7716   87.9160   12.4463 O.3     1  UNL1       -0.4534
     22 C          61.2808   85.3524    7.7095 C.ar    1  UNL1        0.1739
     23 C          62.1595   84.4860    8.5623 C.ar    1  UNL1        0.0592
     24 C          62.5019   84.9104    9.9598 C.ar    1  UNL1        0.0875
     25 N          63.3807   84.0441   10.8126 N.ar    1  UNL1       -0.2435
     26 C          63.7230   84.4684   12.2099 C.ar    1  UNL1        0.1020
     27 C          63.1867   85.7591   12.7545 C.ar    1  UNL1        0.0581
     28 C          62.3080   86.6254   11.9017 C.ar    1  UNL1        0.1483
     29 C          61.9656   86.2010   10.5043 C.ar    1  UNL1        0.0554
     30 C          61.0868   87.0673    9.6515 C.ar    1  UNL1        0.0446
     31 C          60.7444   86.6430    8.2541 C.ar    1  UNL1        0.1726
     32 C          62.0143   84.4243    5.3964 C.3     1  UNL1        0.2526
     33 O          60.9383   84.9280    6.3121 O.3     1  UNL1       -0.4683
     34 O          59.8656   87.5093    7.4012 O.3     1  UNL1       -0.4684
     35 C          59.6364   88.9437    7.7754 C.3     1  UNL1        0.2526
@<TRIPOS>BOND
     1    32    33    1
     2    33    22    1
     3    22    23   ar
     4    23    24   ar
     5    24    25   ar
     6    25    26   ar
     7    26    27   ar
     8    27    28   ar
     9    28    21    1
    10    21     1    1
    11     1     2   ar
    12     2     3   ar
    13     3     4   ar
    14     4     5   ar
    15     5    11    1
    16    11    12    2
    17    11    13   am
    18    13    15    1
    19    15    16   ar
    20    16    17   ar
    21    17    18   ar
    22    18    19   ar
    23    19    20   ar
    24     5     6   ar
    25     6     7   ar
    26     7     8   ar
    27     8     9   ar
    28     9    10   ar
    29    28    29   ar
    30    29    30   ar
    31    30    31   ar
    32    31    34    1
    33    34    35    1
    34    31    22   ar
    35    29    24   ar
    36    10     1   ar
    37     9     4   ar
    38    20    15   ar
    39    13    14    1
@<TRIPOS>MOLECULE
*****
 35 39 0 0 0
SMALL
GASTEIGER

@<TRIPOS>ATOM
      1 C          63.3599   89.9597   13.0689 C.ar    1  UNL1        0.1453
      2 C          63.5016   88.6308   12.3877 C.ar    1  UNL1        0.0375
      3 C          63.5108   87.3692   13.1990 C.ar    1  UNL1        0.0033
      4 C          63.3781   87.4365   14.6917 C.ar    1  UNL1        0.0046
      5 C          63.3872   86.1749   15.5030 C.ar    1  UNL1        0.0537
      6 C          63.2546   86.2422   16.9957 C.ar    1  UNL1        0.0045
      7 C          63.1129   87.5711   17.6769 C.ar    1  UNL1        0.0001
      8 C          63.1038   88.8326   16.8655 C.ar    1  UNL1        0.0001
      9 C          63.2364   88.7653   15.3729 C.ar    1  UNL1        0.0032
     10 C          63.2273   90.0270   14.5615 C.ar    1  UNL1        0.0375
     11 C          63.5290   84.8461   14.8218 C.2     1  UNL1        0.2495
     12 O          64.8735   84.1866   14.7365 O.2     1  UNL1       -0.2698
     13 N          62.3262   84.1767   14.2259 N.am    1  UNL1       -0.2792
     14 H          61.4437   84.6096   14.2819 H       1  UNL1        0.1552
     15 C          62.4679   82.8478   13.5446 C.ar    1  UNL1        0.0700
     16 C          62.9487   82.7801   12.1254 C.ar    1  UNL1        0.0179
     17 C          63.0904   81.4513   11.4441 C.ar    1  UNL1        0.0220
     18 C          62.7513   80.1903   12.1821 C.ar    1  UNL1        0.0990
     19 N          62.2704   80.2580   13.6013 N.ar    1  UNL1       -0.2410
     20 C          62.1287   81.5868   14.2826 C.ar    1  UNL1        0.1135
     21 O          63.3508   91.2212   12.2575 O.3     1  UNL1       -0.4534
     22 C          67.3381   93.3079   15.2570 C.ar    1  UNL1        0.1739
     23 C          67.7294   93.5373   13.8272 C.ar    1  UNL1        0.0592
     24 C          66.8303   93.0729   12.7199 C.ar    1  UNL1        0.0875
     25 N          67.2216   93.3023   11.2901 N.ar    1  UNL1       -0.2435
     26 C          66.3226   92.8380   10.1828 C.ar    1  UNL1        0.1020
     27 C          65.0323   92.1443   10.5053 C.ar    1  UNL1        0.0581
     28 C          64.6411   91.9149   11.9350 C.ar    1  UNL1        0.1483
     29 C          65.5401   92.3792   13.0423 C.ar    1  UNL1        0.0554
     30 C          65.1488   92.1499   14.4722 C.ar    1  UNL1        0.0446
     31 C          66.0478   92.6142   15.5795 C.ar    1  UNL1        0.1726
     32 C          69.5483   94.4255   16.0419 C.3     1  UNL1        0.2526
     33 O          68.2371   93.7722   16.3644 O.3     1  UNL1       -0.4683
     34 O          65.6566   92.3849   17.0093 O.3     1  UNL1       -0.4684
     35 C          64.2070   92.3074   17.3870 C.3     1  UNL1        0.2526
@<TRIPOS>BOND
     1    32    33    1
     2    33    22    1
     3    22    23   ar
     4    23    24   ar
     5    24    25   ar
     6    25    26   ar
     7    26    27   ar
     8    27    28   ar
     9    28    21    1
    10    21     1    1
    11     1     2   ar
    12     2     3   ar
    13     3     4   ar
    14     4     5   ar
    15     5    11    1
    16    11    12    2
    17    11    13   am
    18    13    15    1
    19    15    16   ar
    20    16    17   ar
    21    17    18   ar
    22    18    19   ar
    23    19    20   ar
    24     5     6   ar
    25     6     7   ar
    26     7     8   ar
    27     8     9   ar
    28     9    10   ar
    29    28    29   ar
    30    29    30   ar
    31    30    31   ar
    32    31    34    1
    33    34    35    1
    34    31    22   ar
    35    29    24   ar
    36    10     1   ar
    37     9     4   ar
    38    20    15   ar
    39    13    14    1
