@<TRIPOS>MOLECULE
*****
 24 27 0 0 0
SMALL
GASTEIGER

@<TRIPOS>ATOM
      1 O          64.6480   91.9205   14.1425 O.2     1  UNL1       -0.2422
      2 C          64.2128   90.5462   13.7279 C.2     1  UNL1        0.3644
      3 C          63.3285   90.3692   12.5293 C.3     1  UNL1        0.2333
      4 C          62.8933   88.9949   12.1147 C.2     1  UNL1        0.3159
      5 N          63.3422   87.7976   12.8988 N.2     1  UNL1       -0.0039
      6 C          64.2265   87.9746   14.0975 C.2     1  UNL1        0.3581
      7 N          64.6617   89.3488   14.5121 N.am    1  UNL1        0.0289
      8 N          62.0090   88.8180   10.9160 N.pl3   1  UNL1       -0.1888
      9 C          61.0923   89.9263   10.4901 C.3     1  UNL1        0.2343
     10 C          60.2081   89.7495    9.2915 C.3     1  UNL1        0.1929
     11 O          60.2405   88.4643    8.5187 O.3     1  UNL1       -0.3449
     12 C          61.1572   87.3559    8.9446 C.3     1  UNL1        0.1929
     13 C          62.0414   87.5328   10.1433 C.3     1  UNL1        0.2343
     14 C          64.6754   86.7772   14.8816 C.3     1  UNL1        0.2065
     15 C          64.1630   85.4129   14.5264 C.ar    1  UNL1        0.2182
     16 N          62.8854   84.7965   15.0139 N.ar    1  UNL1       -0.2115
     17 C          62.7710   83.4281   14.4102 C.ar    1  UNL1        0.1208
     18 C          61.7238   82.3612   14.5329 C.ar    1  UNL1        0.0519
     19 C          61.8836   81.0651   13.7950 C.ar    1  UNL1        0.1418
     20 F          60.8364   79.9982   13.9177 F       1  UNL1       -0.2041
     21 C          63.0906   80.8358   12.9344 C.ar    1  UNL1        0.0329
     22 C          64.1378   81.9027   12.8117 C.ar    1  UNL1        0.0414
     23 C          63.9780   83.1988   13.5496 C.ar    1  UNL1        0.1645
     24 O          64.8383   84.4255   13.6215 O.2     1  UNL1       -0.4378
@<TRIPOS>BOND
     1     1     2    2
     2     2     3    1
     3     3     4    1
     4     4     8    1
     5     8     9    1
     6     9    10    1
     7    10    11    1
     8    11    12    1
     9    12    13    1
    10     4     5    2
    11     5     6    1
    12     6    14    1
    13    14    15    1
    14    15    16   ar
    15    16    17   ar
    16    17    18   ar
    17    18    19   ar
    18    19    20    1
    19    19    21   ar
    20    21    22   ar
    21    22    23   ar
    22    23    24   ar
    23     6     7    2
    24     7     2    1
    25    13     8    1
    26    24    15   ar
    27    23    17   ar
@<TRIPOS>MOLECULE
*****
 24 27 0 0 0
SMALL
GASTEIGER

@<TRIPOS>ATOM
      1 O          67.1190   93.3140   16.4427 O.2     1  UNL1       -0.2422
      2 C          66.4683   92.7762   15.2028 C.2     1  UNL1        0.3644
      3 C          66.9168   93.2533   13.8533 C.3     1  UNL1        0.2333
      4 C          66.2662   92.7155   12.6133 C.2     1  UNL1        0.3159
      5 N          65.1670   91.7008   12.7229 N.2     1  UNL1       -0.0039
      6 C          64.7185   91.2237   14.0724 C.2     1  UNL1        0.3581
      7 N          65.3691   91.7614   15.3124 N.am    1  UNL1        0.0289
      8 N          66.7147   93.1926   11.2637 N.pl3   1  UNL1       -0.1888
      9 C          66.2325   94.5113   10.7360 C.3     1  UNL1        0.2343
     10 C          66.6810   94.9884    9.3865 C.3     1  UNL1        0.1929
     11 O          67.6118   94.1468    8.5648 O.3     1  UNL1       -0.3449
     12 C          68.0940   92.8281    9.0925 C.3     1  UNL1        0.1929
     13 C          67.6455   92.3510   10.4420 C.3     1  UNL1        0.2343
     14 C          63.6193   90.2089   14.1820 C.3     1  UNL1        0.2065
     15 C          62.9377   89.7049   12.9445 C.ar    1  UNL1        0.2182
     16 N          63.1241   88.3521   12.3240 N.ar    1  UNL1       -0.2115
     17 C          62.2516   88.2764   11.1062 C.ar    1  UNL1        0.1208
     18 C          62.0242   87.1869   10.1006 C.ar    1  UNL1        0.0519
     19 C          61.0711   87.4035    8.9628 C.ar    1  UNL1        0.1418
     20 F          60.8436   86.3140    7.9572 F       1  UNL1       -0.2041
     21 C          60.3455   88.7096    8.8306 C.ar    1  UNL1        0.0329
     22 C          60.5729   89.7991    9.8362 C.ar    1  UNL1        0.0414
     23 C          61.5260   89.5825   10.9740 C.ar    1  UNL1        0.1645
     24 O          61.9500   90.4654   12.1101 O.2     1  UNL1       -0.4378
@<TRIPOS>BOND
     1     1     2    2
     2     2     3    1
     3     3     4    1
     4     4     8    1
     5     8     9    1
     6     9    10    1
     7    10    11    1
     8    11    12    1
     9    12    13    1
    10     4     5    2
    11     5     6    1
    12     6    14    1
    13    14    15    1
    14    15    16   ar
    15    16    17   ar
    16    17    18   ar
    17    18    19   ar
    18    19    20    1
    19    19    21   ar
    20    21    22   ar
    21    22    23   ar
    22    23    24   ar
    23     6     7    2
    24     7     2    1
    25    13     8    1
    26    24    15   ar
    27    23    17   ar
@<TRIPOS>MOLECULE
*****
 24 27 0 0 0
SMALL
GASTEIGER

@<TRIPOS>ATOM
      1 O          62.3772   85.3629    7.7623 O.2     1  UNL1       -0.2422
      2 C          62.3897   85.8371    9.1853 C.2     1  UNL1        0.3644
      3 C          62.6829   84.8714   10.2950 C.3     1  UNL1        0.2333
      4 C          62.6954   85.3455   11.7181 C.2     1  UNL1        0.3159
      5 N          62.4148   86.7853   12.0314 N.2     1  UNL1       -0.0039
      6 C          62.1216   87.7511   10.9216 C.2     1  UNL1        0.3581
      7 N          62.1091   87.2769    9.4986 N.am    1  UNL1        0.0289
      8 N          62.9886   84.3798   12.8278 N.pl3   1  UNL1       -0.1888
      9 C          62.7128   82.9172   12.6416 C.3     1  UNL1        0.2343
     10 C          63.0060   81.9514   13.7512 C.3     1  UNL1        0.1929
     11 O          63.5749   82.4483   15.0471 O.3     1  UNL1       -0.3449
     12 C          63.8506   83.9110   15.2334 C.3     1  UNL1        0.1929
     13 C          63.5575   84.8767   14.1237 C.3     1  UNL1        0.2343
     14 C          61.8409   89.1908   11.2350 C.3     1  UNL1        0.2065
     15 C          62.8293   89.9920   12.0295 C.ar    1  UNL1        0.2182
     16 N          63.0556   89.8961   13.5092 N.ar    1  UNL1       -0.2115
     17 C          64.1311   90.8745   13.8780 C.ar    1  UNL1        0.1208
     18 C          64.7678   91.2180   15.1920 C.ar    1  UNL1        0.0519
     19 C          65.8430   92.2621   15.2542 C.ar    1  UNL1        0.1418
     20 F          66.4798   92.6057   16.5682 F       1  UNL1       -0.2041
     21 C          66.2815   92.9626   14.0024 C.ar    1  UNL1        0.0329
     22 C          65.6447   92.6191   12.6884 C.ar    1  UNL1        0.0414
     23 C          64.5696   91.5751   12.6262 C.ar    1  UNL1        0.1645
     24 O          63.7650   91.0296   11.4838 O.2     1  UNL1       -0.4378
@<TRIPOS>BOND
     1     1     2    2
     2     2     3    1
     3     3     4    1
     4     4     8    1
     5     8     9    1
     6     9    10    1
     7    10    11    1
     8    11    12    1
     9    12    13    1
    10     4     5    2
    11     5     6    1
    12     6    14    1
    13    14    15    1
    14    15    16   ar
    15    16    17   ar
    16    17    18   ar
    17    18    19   ar
    18    19    20    1
    19    19    21   ar
    20    21    22   ar
    21    22    23   ar
    22    23    24   ar
    23     6     7    2
    24     7     2    1
    25    13     8    1
    26    24    15   ar
    27    23    17   ar
@<TRIPOS>MOLECULE
*****
 24 27 0 0 0
SMALL
GASTEIGER

@<TRIPOS>ATOM
      1 O          66.6750   92.7139   16.2223 O.2     1  UNL1       -0.2422
      2 C          66.1020   92.4861   14.8550 C.2     1  UNL1        0.3644
      3 C          66.6639   93.2210   13.6743 C.3     1  UNL1        0.2333
      4 C          66.0909   92.9932   12.3069 C.2     1  UNL1        0.3159
      5 N          64.9558   92.0306   12.1202 N.2     1  UNL1       -0.0039
      6 C          64.3938   91.2956   13.3009 C.2     1  UNL1        0.3581
      7 N          64.9669   91.5234   14.6683 N.am    1  UNL1        0.0289
      8 N          66.6529   93.7282   11.1262 N.pl3   1  UNL1       -0.1888
      9 C          67.4149   92.9818   10.0715 C.3     1  UNL1        0.2343
     10 C          67.9769   93.7167    8.8908 C.3     1  UNL1        0.1929
     11 O          67.7770   95.1980    8.7648 O.3     1  UNL1       -0.3449
     12 C          67.0150   95.9443    9.8195 C.3     1  UNL1        0.1929
     13 C          66.4530   95.2094   11.0002 C.3     1  UNL1        0.2343
     14 C          63.2588   90.3329   13.1142 C.3     1  UNL1        0.2065
     15 C          63.4820   88.8628   13.3118 C.ar    1  UNL1        0.2182
     16 N          63.0071   87.7689   12.4020 N.ar    1  UNL1       -0.2115
     17 C          63.4509   86.4585   12.9817 C.ar    1  UNL1        0.1208
     18 C          63.2696   85.0433   12.5187 C.ar    1  UNL1        0.0519
     19 C          63.8375   83.9123   13.3238 C.ar    1  UNL1        0.1418
     20 F          63.6562   82.4971   12.8608 F       1  UNL1       -0.2041
     21 C          64.5866   84.1964   14.5919 C.ar    1  UNL1        0.0329
     22 C          64.7679   85.6116   15.0549 C.ar    1  UNL1        0.0414
     23 C          64.2000   86.7426   14.2498 C.ar    1  UNL1        0.1645
     24 O          64.2192   88.2286   14.4538 O.2     1  UNL1       -0.4378
@<TRIPOS>BOND
     1     1     2    2
     2     2     3    1
     3     3     4    1
     4     4     8    1
     5     8     9    1
     6     9    10    1
     7    10    11    1
     8    11    12    1
     9    12    13    1
    10     4     5    2
    11     5     6    1
    12     6    14    1
    13    14    15    1
    14    15    16   ar
    15    16    17   ar
    16    17    18   ar
    17    18    19   ar
    18    19    20    1
    19    19    21   ar
    20    21    22   ar
    21    22    23   ar
    22    23    24   ar
    23     6     7    2
    24     7     2    1
    25    13     8    1
    26    24    15   ar
    27    23    17   ar
@<TRIPOS>MOLECULE
*****
 24 27 0 0 0
SMALL
GASTEIGER

@<TRIPOS>ATOM
      1 O          62.7073   85.1790    7.6866 O.2     1  UNL1       -0.2422
      2 C          62.5781   85.6659    9.0994 C.2     1  UNL1        0.3644
      3 C          62.8346   84.7287   10.2421 C.3     1  UNL1        0.2333
      4 C          62.7054   85.2156   11.6550 C.2     1  UNL1        0.3159
      5 N          62.3196   86.6397   11.9252 N.2     1  UNL1       -0.0039
      6 C          62.0631   87.5770   10.7825 C.2     1  UNL1        0.3581
      7 N          62.1923   87.0901    9.3696 N.am    1  UNL1        0.0289
      8 N          62.9619   84.2782   12.7977 N.pl3   1  UNL1       -0.1888
      9 C          63.4657   84.8111   14.1062 C.3     1  UNL1        0.2343
     10 C          63.7223   83.8739   15.2489 C.3     1  UNL1        0.1929
     11 O          63.4750   82.4038   15.0830 O.3     1  UNL1       -0.3449
     12 C          62.9711   81.8709   13.7745 C.3     1  UNL1        0.1929
     13 C          62.7146   82.8081   12.6319 C.3     1  UNL1        0.2343
     14 C          61.6774   89.0011   11.0527 C.3     1  UNL1        0.2065
     15 C          62.7369   90.0240   11.3374 C.ar    1  UNL1        0.2182
     16 N          63.2834   91.0227   10.3607 N.ar    1  UNL1       -0.2115
     17 C          64.3202   91.8438   11.0684 C.ar    1  UNL1        0.1208
     18 C          65.1907   92.9752   10.6078 C.ar    1  UNL1        0.0519
     19 C          66.1553   93.6155   11.5614 C.ar    1  UNL1        0.1418
     20 F          67.0258   94.7470   11.1009 F       1  UNL1       -0.2041
     21 C          66.2496   93.1243   12.9756 C.ar    1  UNL1        0.0329
     22 C          65.3792   91.9928   13.4362 C.ar    1  UNL1        0.0414
     23 C          64.4145   91.3526   12.4826 C.ar    1  UNL1        0.1645
     24 O          63.4360   90.2279   12.6488 O.2     1  UNL1       -0.4378
@<TRIPOS>BOND
     1     1     2    2
     2     2     3    1
     3     3     4    1
     4     4     8    1
     5     8     9    1
     6     9    10    1
     7    10    11    1
     8    11    12    1
     9    12    13    1
    10     4     5    2
    11     5     6    1
    12     6    14    1
    13    14    15    1
    14    15    16   ar
    15    16    17   ar
    16    17    18   ar
    17    18    19   ar
    18    19    20    1
    19    19    21   ar
    20    21    22   ar
    21    22    23   ar
    22    23    24   ar
    23     6     7    2
    24     7     2    1
    25    13     8    1
    26    24    15   ar
    27    23    17   ar
@<TRIPOS>MOLECULE
*****
 24 27 0 0 0
SMALL
GASTEIGER

@<TRIPOS>ATOM
      1 O          61.8466   88.7636   10.8534 O.2     1  UNL1       -0.2422
      2 C          62.8219   88.8531   11.9895 C.2     1  UNL1        0.3644
      3 C          63.5255   90.1470   12.2738 C.3     1  UNL1        0.2333
      4 C          64.5008   90.2365   13.4099 C.2     1  UNL1        0.3159
      5 N          64.7727   89.0321   14.2616 N.2     1  UNL1       -0.0039
      6 C          64.0691   87.7382   13.9773 C.2     1  UNL1        0.3581
      7 N          63.0938   87.6487   12.8413 N.am    1  UNL1        0.0289
      8 N          65.2044   91.5305   13.6942 N.pl3   1  UNL1       -0.1888
      9 C          65.4193   92.5251   12.5921 C.3     1  UNL1        0.2343
     10 C          66.1228   93.8191   12.8764 C.3     1  UNL1        0.1929
     11 O          66.6114   94.1183   14.2626 O.3     1  UNL1       -0.3449
     12 C          66.3965   93.1236   15.3646 C.3     1  UNL1        0.1929
     13 C          65.6930   91.8297   15.0804 C.3     1  UNL1        0.2343
     14 C          64.3410   86.5338   14.8291 C.3     1  UNL1        0.2065
     15 C          63.8551   85.1828   14.3947 C.ar    1  UNL1        0.2182
     16 N          64.3129   84.4295   13.1810 N.ar    1  UNL1       -0.2115
     17 C          63.5669   83.1290   13.1338 C.ar    1  UNL1        0.1208
     18 C          63.6055   81.9843   12.1653 C.ar    1  UNL1        0.0519
     19 C          62.7254   80.7891   12.3814 C.ar    1  UNL1        0.1418
     20 F          62.7640   79.6443   11.4128 F       1  UNL1       -0.2041
     21 C          61.8066   80.7386   13.5660 C.ar    1  UNL1        0.0329
     22 C          61.7679   81.8833   14.5345 C.ar    1  UNL1        0.0414
     23 C          62.6480   83.0785   14.3184 C.ar    1  UNL1        0.1645
     24 O          62.8262   84.3478   15.0976 O.2     1  UNL1       -0.4378
@<TRIPOS>BOND
     1     1     2    2
     2     2     3    1
     3     3     4    1
     4     4     8    1
     5     8     9    1
     6     9    10    1
     7    10    11    1
     8    11    12    1
     9    12    13    1
    10     4     5    2
    11     5     6    1
    12     6    14    1
    13    14    15    1
    14    15    16   ar
    15    16    17   ar
    16    17    18   ar
    17    18    19   ar
    18    19    20    1
    19    19    21   ar
    20    21    22   ar
    21    22    23   ar
    22    23    24   ar
    23     6     7    2
    24     7     2    1
    25    13     8    1
    26    24    15   ar
    27    23    17   ar
@<TRIPOS>MOLECULE
*****
 24 27 0 0 0
SMALL
GASTEIGER

@<TRIPOS>ATOM
      1 O          63.6313   86.0445   13.8027 O.2     1  UNL1       -0.2422
      2 C          63.1564   86.9632   12.7162 C.2     1  UNL1        0.3644
      3 C          62.4417   86.4053   11.5213 C.3     1  UNL1        0.2333
      4 C          61.9668   87.3241   10.4349 C.2     1  UNL1        0.3159
      5 N          62.2067   88.8008   10.5433 N.2     1  UNL1       -0.0039
      6 C          62.9214   89.3588   11.7383 C.2     1  UNL1        0.3581
      7 N          63.3963   88.4400   12.8247 N.am    1  UNL1        0.0289
      8 N          61.2520   86.7661    9.2400 N.pl3   1  UNL1       -0.1888
      9 C          61.9372   85.7674    8.3550 C.3     1  UNL1        0.2343
     10 C          61.2225   85.2094    7.1601 C.3     1  UNL1        0.1929
     11 O          59.8226   85.6501    6.8502 O.3     1  UNL1       -0.3449
     12 C          59.1374   86.6488    7.7351 C.3     1  UNL1        0.1929
     13 C          59.8521   87.2068    8.9300 C.3     1  UNL1        0.2343
     14 C          63.1613   90.8354   11.8467 C.3     1  UNL1        0.2065
     15 C          64.2256   91.3569   12.7662 C.ar    1  UNL1        0.2182
     16 N          65.5810   91.8510   12.3556 N.ar    1  UNL1       -0.2115
     17 C          66.3144   92.2753   13.5934 C.ar    1  UNL1        0.1208
     18 C          67.6871   92.8428   13.8018 C.ar    1  UNL1        0.0519
     19 C          68.1576   93.1784   15.1859 C.ar    1  UNL1        0.1418
     20 F          69.5304   93.7460   15.3944 F       1  UNL1       -0.2041
     21 C          67.2555   92.9465   16.3617 C.ar    1  UNL1        0.0329
     22 C          65.8828   92.3789   16.1532 C.ar    1  UNL1        0.0414
     23 C          65.4122   92.0433   14.7691 C.ar    1  UNL1        0.1645
     24 O          64.1213   91.4757   14.2579 O.2     1  UNL1       -0.4378
@<TRIPOS>BOND
     1     1     2    2
     2     2     3    1
     3     3     4    1
     4     4     8    1
     5     8     9    1
     6     9    10    1
     7    10    11    1
     8    11    12    1
     9    12    13    1
    10     4     5    2
    11     5     6    1
    12     6    14    1
    13    14    15    1
    14    15    16   ar
    15    16    17   ar
    16    17    18   ar
    17    18    19   ar
    18    19    20    1
    19    19    21   ar
    20    21    22   ar
    21    22    23   ar
    22    23    24   ar
    23     6     7    2
    24     7     2    1
    25    13     8    1
    26    24    15   ar
    27    23    17   ar
@<TRIPOS>MOLECULE
*****
 24 27 0 0 0
SMALL
GASTEIGER

@<TRIPOS>ATOM
      1 O          62.9619   80.3365   14.0213 O.2     1  UNL1       -0.2422
      2 C          62.9360   81.8281   13.8654 C.2     1  UNL1        0.3644
      3 C          62.7566   82.4372   12.5065 C.3     1  UNL1        0.2333
      4 C          62.7307   83.9288   12.3506 C.2     1  UNL1        0.3159
      5 N          62.8844   84.8114   13.5536 N.2     1  UNL1       -0.0039
      6 C          63.0638   84.2024   14.9127 C.2     1  UNL1        0.3581
      7 N          63.0896   82.7107   15.0686 N.am    1  UNL1        0.0289
      8 N          62.5513   84.5379   10.9915 N.pl3   1  UNL1       -0.1888
      9 C          63.3850   84.0603    9.8396 C.3     1  UNL1        0.2343
     10 C          63.2056   84.6693    8.4806 C.3     1  UNL1        0.1929
     11 O          62.1925   85.7558    8.2735 O.3     1  UNL1       -0.3449
     12 C          61.3588   86.2334    9.4254 C.3     1  UNL1        0.1929
     13 C          61.5382   85.6244   10.7844 C.3     1  UNL1        0.2343
     14 C          63.2174   85.0850   16.1157 C.3     1  UNL1        0.2065
     15 C          63.4795   86.5516   15.9414 C.ar    1  UNL1        0.2182
     16 N          64.2470   87.1827   14.8178 N.ar    1  UNL1       -0.2115
     17 C          64.2619   88.6657   15.0421 C.ar    1  UNL1        0.1208
     18 C          64.8680   89.7931   14.2600 C.ar    1  UNL1        0.0519
     19 C          64.7158   91.2059   14.7402 C.ar    1  UNL1        0.1418
     20 F          65.3219   92.3333   13.9581 F       1  UNL1       -0.2041
     21 C          63.9575   91.4914   16.0025 C.ar    1  UNL1        0.0329
     22 C          63.3514   90.3641   16.7846 C.ar    1  UNL1        0.0414
     23 C          63.5036   88.9513   16.3044 C.ar    1  UNL1        0.1645
     24 O          63.0200   87.6446   16.8602 O.2     1  UNL1       -0.4378
@<TRIPOS>BOND
     1     1     2    2
     2     2     3    1
     3     3     4    1
     4     4     8    1
     5     8     9    1
     6     9    10    1
     7    10    11    1
     8    11    12    1
     9    12    13    1
    10     4     5    2
    11     5     6    1
    12     6    14    1
    13    14    15    1
    14    15    16   ar
    15    16    17   ar
    16    17    18   ar
    17    18    19   ar
    18    19    20    1
    19    19    21   ar
    20    21    22   ar
    21    22    23   ar
    22    23    24   ar
    23     6     7    2
    24     7     2    1
    25    13     8    1
    26    24    15   ar
    27    23    17   ar
@<TRIPOS>MOLECULE
*****
 24 27 0 0 0
SMALL
GASTEIGER

@<TRIPOS>ATOM
      1 O          64.3252   90.2921   15.2527 O.2     1  UNL1       -0.2422
      2 C          64.1075   90.7141   13.8298 C.2     1  UNL1        0.3644
      3 C          65.0991   91.6145   13.1545 C.3     1  UNL1        0.2333
      4 C          64.8814   92.0365   11.7317 C.2     1  UNL1        0.3159
      5 N          63.6721   91.5582   10.9841 N.2     1  UNL1       -0.0039
      6 C          62.6805   90.6577   11.6594 C.2     1  UNL1        0.3581
      7 N          62.8982   90.2357   13.0823 N.am    1  UNL1        0.0289
      8 N          65.8730   92.9370   11.0564 N.pl3   1  UNL1       -0.1888
      9 C          65.7848   94.4228   11.2421 C.3     1  UNL1        0.2343
     10 C          66.7763   95.3233   10.5669 C.3     1  UNL1        0.1929
     11 O          67.8561   94.7379    9.7059 O.3     1  UNL1       -0.3449
     12 C          67.9443   93.2520    9.5202 C.3     1  UNL1        0.1929
     13 C          66.9528   92.3516   10.1954 C.3     1  UNL1        0.2343
     14 C          61.4713   90.1794   10.9119 C.3     1  UNL1        0.2065
     15 C          61.5494   88.9363   10.0760 C.ar    1  UNL1        0.2182
     16 N          60.4912   88.4369    9.1375 N.ar    1  UNL1       -0.2115
     17 C          60.9873   87.1664    8.5132 C.ar    1  UNL1        0.1208
     18 C          60.3726   86.2329    7.5130 C.ar    1  UNL1        0.0519
     19 C          61.1227   85.0135    7.0654 C.ar    1  UNL1        0.1418
     20 F          60.5080   84.0799    6.0651 F       1  UNL1       -0.2041
     21 C          62.4875   84.7276    7.6182 C.ar    1  UNL1        0.0329
     22 C          63.1022   85.6611    8.6184 C.ar    1  UNL1        0.0414
     23 C          62.3521   86.8805    9.0660 C.ar    1  UNL1        0.1645
     24 O          62.6995   87.9744   10.0318 O.2     1  UNL1       -0.4378
@<TRIPOS>BOND
     1     1     2    2
     2     2     3    1
     3     3     4    1
     4     4     8    1
     5     8     9    1
     6     9    10    1
     7    10    11    1
     8    11    12    1
     9    12    13    1
    10     4     5    2
    11     5     6    1
    12     6    14    1
    13    14    15    1
    14    15    16   ar
    15    16    17   ar
    16    17    18   ar
    17    18    19   ar
    18    19    20    1
    19    19    21   ar
    20    21    22   ar
    21    22    23   ar
    22    23    24   ar
    23     6     7    2
    24     7     2    1
    25    13     8    1
    26    24    15   ar
    27    23    17   ar
