@<TRIPOS>MOLECULE
*****
 25 28 0 0 0
SMALL
GASTEIGER

@<TRIPOS>ATOM
      1 C          63.7088   87.6433   13.3379 C.2     1  UNL1        0.3563
      2 N          62.8399   87.3620   12.1479 N.2     1  UNL1       -0.0039
      3 C          62.3255   88.4949   11.3103 C.2     1  UNL1        0.3159
      4 C          62.6800   89.9092   11.6625 C.3     1  UNL1        0.2333
      5 C          63.5489   90.1906   12.8523 C.2     1  UNL1        0.3644
      6 O          63.9034   91.6049   13.2046 O.2     1  UNL1       -0.2422
      7 N          64.0633   89.0576   13.6901 N.am    1  UNL1        0.0288
      8 N          61.4566   88.2136   10.1203 N.pl3   1  UNL1       -0.1888
      9 C          61.2705   86.8034    9.6441 C.3     1  UNL1        0.2343
     10 C          60.4017   86.5221    8.4542 C.3     1  UNL1        0.1929
     11 O          59.7189   87.6509    7.7405 O.3     1  UNL1       -0.3449
     12 C          59.9050   89.0611    8.2167 C.3     1  UNL1        0.1929
     13 C          60.7738   89.3425    9.4066 C.3     1  UNL1        0.2343
     14 C          64.2232   86.5103   14.1756 C.3     1  UNL1        0.1852
     15 C          62.2503   84.7265   16.0664 C.3     1  UNL1        0.1316
     16 N          62.8622   84.2876   14.7692 N.ar    1  UNL1       -0.3124
     17 C          63.7691   85.1075   13.9001 C.ar    1  UNL1        0.1329
     18 N          64.1421   84.2782   12.7071 N.ar    1  UNL1       -0.2303
     19 C          63.4658   82.9458   12.8389 C.ar    1  UNL1        0.1006
     20 C          63.4680   81.7281   11.9631 C.ar    1  UNL1        0.0502
     21 C          62.6792   80.5162   12.3618 C.ar    1  UNL1        0.1417
     22 F          62.6814   79.2983   11.4859 F       1  UNL1       -0.2041
     23 C          61.8883   80.5219   13.6362 C.ar    1  UNL1        0.0312
     24 C          61.8860   81.7397   14.5121 C.ar    1  UNL1        0.0211
     25 C          62.6748   82.9516   14.1134 C.ar    1  UNL1        0.0788
@<TRIPOS>BOND
     1    15    16    1
     2    16    17   ar
     3    17    14    1
     4    14     1    1
     5     1     2    1
     6     2     3    2
     7     3     8    1
     8     8     9    1
     9     9    10    1
    10    10    11    1
    11    11    12    1
    12    12    13    1
    13     3     4    1
    14     4     5    1
    15     5     6    2
    16     5     7    1
    17    17    18   ar
    18    18    19   ar
    19    19    20   ar
    20    20    21   ar
    21    21    22    1
    22    21    23   ar
    23    23    24   ar
    24    24    25   ar
    25    25    16   ar
    26     7     1    2
    27    25    19   ar
    28    13     8    1
@<TRIPOS>MOLECULE
*****
 25 28 0 0 0
SMALL
GASTEIGER

@<TRIPOS>ATOM
      1 C          62.0628   87.6731   11.0212 C.2     1  UNL1        0.3563
      2 N          62.3977   86.6710   12.0859 N.2     1  UNL1       -0.0039
      3 C          62.7122   85.2535   11.7095 C.2     1  UNL1        0.3159
      4 C          62.6917   84.8381   10.2683 C.3     1  UNL1        0.2333
      5 C          62.3568   85.8401    9.2036 C.2     1  UNL1        0.3644
      6 O          62.3363   85.4247    7.7624 O.2     1  UNL1       -0.2422
      7 N          62.0423   87.2577    9.5800 N.am    1  UNL1        0.0288
      8 N          63.0472   84.2513   12.7742 N.pl3   1  UNL1       -0.1888
      9 C          63.6564   84.7062   14.0672 C.3     1  UNL1        0.2343
     10 C          63.9914   83.7041   15.1319 C.3     1  UNL1        0.1929
     11 O          63.7171   82.2472   14.9036 O.3     1  UNL1       -0.3449
     12 C          63.1079   81.7924   13.6105 C.3     1  UNL1        0.1929
     13 C          62.7729   82.7945   12.5458 C.3     1  UNL1        0.2343
     14 C          61.7483   89.0906   11.3977 C.3     1  UNL1        0.1852
     15 C          63.5304   91.5012   10.1082 C.3     1  UNL1        0.1316
     16 N          63.5872   91.0260   11.5298 N.ar    1  UNL1       -0.3124
     17 C          62.7681   89.9180   12.1225 C.ar    1  UNL1        0.1329
     18 N          63.1479   89.7827   13.5673 N.ar    1  UNL1       -0.2303
     19 C          64.2017   90.8070   13.8676 C.ar    1  UNL1        0.1006
     20 C          64.9491   91.1393   15.1249 C.ar    1  UNL1        0.0502
     21 C          65.9681   92.2401   15.1230 C.ar    1  UNL1        0.1417
     22 F          66.7155   92.5724   16.3803 F       1  UNL1       -0.2041
     23 C          66.2396   93.0086   13.8637 C.ar    1  UNL1        0.0312
     24 C          65.4922   92.6763   12.6064 C.ar    1  UNL1        0.0211
     25 C          64.4733   91.5755   12.6083 C.ar    1  UNL1        0.0788
@<TRIPOS>BOND
     1    15    16    1
     2    16    17   ar
     3    17    14    1
     4    14     1    1
     5     1     2    1
     6     2     3    2
     7     3     8    1
     8     8     9    1
     9     9    10    1
    10    10    11    1
    11    11    12    1
    12    12    13    1
    13     3     4    1
    14     4     5    1
    15     5     6    2
    16     5     7    1
    17    17    18   ar
    18    18    19   ar
    19    19    20   ar
    20    20    21   ar
    21    21    22    1
    22    21    23   ar
    23    23    24   ar
    24    24    25   ar
    25    25    16   ar
    26     7     1    2
    27    25    19   ar
    28    13     8    1
@<TRIPOS>MOLECULE
*****
 25 28 0 0 0
SMALL
GASTEIGER

@<TRIPOS>ATOM
      1 C          62.0424   87.8368   10.8844 C.2     1  UNL1        0.3563
      2 N          62.3843   86.9115   12.0144 N.2     1  UNL1       -0.0039
      3 C          62.7242   85.4779   11.7332 C.2     1  UNL1        0.3159
      4 C          62.7223   84.9695   10.3219 C.3     1  UNL1        0.2333
      5 C          62.3805   85.8948    9.1919 C.2     1  UNL1        0.3644
      6 O          62.3785   85.3865    7.7807 O.2     1  UNL1       -0.2422
      7 N          62.0405   87.3285    9.4731 N.am    1  UNL1        0.0288
      8 N          63.0661   84.5525   12.8632 N.pl3   1  UNL1       -0.1888
      9 C          62.7036   83.0994   12.7785 C.3     1  UNL1        0.2343
     10 C          63.0454   82.1741   13.9085 C.3     1  UNL1        0.1929
     11 O          63.7498   82.7018   15.1231 O.3     1  UNL1       -0.3449
     12 C          64.1124   84.1549   15.2077 C.3     1  UNL1        0.1929
     13 C          63.7705   85.0802   14.0778 C.3     1  UNL1        0.2343
     14 C          61.7024   89.2705   11.1656 C.3     1  UNL1        0.1852
     15 C          63.2711   89.8486   13.9682 C.3     1  UNL1        0.1316
     16 N          63.5187   90.5401   12.6604 N.ar    1  UNL1       -0.3124
     17 C          62.7977   90.2744   11.3721 C.ar    1  UNL1        0.1329
     18 N          63.3642   91.1888   10.3268 N.ar    1  UNL1       -0.2303
     19 C          64.4353   92.0197   10.9689 C.ar    1  UNL1        0.1006
     20 C          65.3360   93.0896   10.4266 C.ar    1  UNL1        0.0502
     21 C          66.3322   93.7585   11.3266 C.ar    1  UNL1        0.1417
     22 F          67.2330   94.8284   10.7844 F       1  UNL1       -0.2041
     23 C          66.4277   93.3576   12.7689 C.ar    1  UNL1        0.0312
     24 C          65.5270   92.2877   13.3112 C.ar    1  UNL1        0.0211
     25 C          64.5308   91.6188   12.4111 C.ar    1  UNL1        0.0788
@<TRIPOS>BOND
     1    15    16    1
     2    16    17   ar
     3    17    14    1
     4    14     1    1
     5     1     2    1
     6     2     3    2
     7     3     8    1
     8     8     9    1
     9     9    10    1
    10    10    11    1
    11    11    12    1
    12    12    13    1
    13     3     4    1
    14     4     5    1
    15     5     6    2
    16     5     7    1
    17    17    18   ar
    18    18    19   ar
    19    19    20   ar
    20    20    21   ar
    21    21    22    1
    22    21    23   ar
    23    23    24   ar
    24    24    25   ar
    25    25    16   ar
    26     7     1    2
    27    25    19   ar
    28    13     8    1
@<TRIPOS>MOLECULE
*****
 25 28 0 0 0
SMALL
GASTEIGER

@<TRIPOS>ATOM
      1 C          64.2500   91.4247   12.6784 C.2     1  UNL1        0.3563
      2 N          64.8265   92.3325   11.6327 N.2     1  UNL1       -0.0039
      3 C          65.9252   93.2883   11.9923 C.2     1  UNL1        0.3159
      4 C          66.4475   93.3362   13.3976 C.3     1  UNL1        0.2333
      5 C          65.8710   92.4284   14.4433 C.2     1  UNL1        0.3644
      6 O          66.3933   92.4764   15.8487 O.2     1  UNL1       -0.2422
      7 N          64.7723   91.4726   14.0838 N.am    1  UNL1        0.0288
      8 N          66.5017   94.1961   10.9465 N.pl3   1  UNL1       -0.1888
      9 C          67.2539   93.6188    9.7843 C.3     1  UNL1        0.2343
     10 C          67.8304   94.5266    8.7386 C.3     1  UNL1        0.1929
     11 O          67.6547   96.0117    8.8551 O.3     1  UNL1       -0.3449
     12 C          66.9024   96.5890   10.0174 C.3     1  UNL1        0.1929
     13 C          66.3260   95.6812   11.0631 C.3     1  UNL1        0.2343
     14 C          63.1513   90.4689   12.3188 C.3     1  UNL1        0.1852
     15 C          62.0565   87.9884   10.5028 C.3     1  UNL1        0.1316
     16 N          62.7866   87.8707   11.8078 N.ar    1  UNL1       -0.3124
     17 C          63.2898   89.0108   12.6425 C.ar    1  UNL1        0.1329
     18 N          63.9559   88.4368   13.8578 N.ar    1  UNL1       -0.2303
     19 C          63.8643   86.9420   13.7742 C.ar    1  UNL1        0.1006
     20 C          64.3455   85.8542   14.6880 C.ar    1  UNL1        0.0502
     21 C          64.1041   84.4165   14.3348 C.ar    1  UNL1        0.1417
     22 F          64.5854   83.3287   15.2487 F       1  UNL1       -0.2041
     23 C          63.3815   84.0666   13.0678 C.ar    1  UNL1        0.0312
     24 C          62.9002   85.1544   12.1540 C.ar    1  UNL1        0.0211
     25 C          63.1416   86.5920   12.5072 C.ar    1  UNL1        0.0788
@<TRIPOS>BOND
     1    15    16    1
     2    16    17   ar
     3    17    14    1
     4    14     1    1
     5     1     2    1
     6     2     3    2
     7     3     8    1
     8     8     9    1
     9     9    10    1
    10    10    11    1
    11    11    12    1
    12    12    13    1
    13     3     4    1
    14     4     5    1
    15     5     6    2
    16     5     7    1
    17    17    18   ar
    18    18    19   ar
    19    19    20   ar
    20    20    21   ar
    21    21    22    1
    22    21    23   ar
    23    23    24   ar
    24    24    25   ar
    25    25    16   ar
    26     7     1    2
    27    25    19   ar
    28    13     8    1
@<TRIPOS>MOLECULE
*****
 25 28 0 0 0
SMALL
GASTEIGER

@<TRIPOS>ATOM
      1 C          64.0965   87.8905   13.8601 C.2     1  UNL1        0.3563
      2 N          64.7919   89.1899   14.1397 N.2     1  UNL1       -0.0039
      3 C          64.5286   90.3837   13.2705 C.2     1  UNL1        0.3159
      4 C          63.5699   90.2782   12.1217 C.3     1  UNL1        0.2333
      5 C          62.8746   88.9789   11.8420 C.2     1  UNL1        0.3644
      6 O          61.9160   88.8733   10.6931 O.2     1  UNL1       -0.2422
      7 N          63.1379   87.7850   12.7112 N.am    1  UNL1        0.0288
      8 N          65.2239   91.6831   13.5502 N.pl3   1  UNL1       -0.1888
      9 C          65.7450   91.9739   14.9264 C.3     1  UNL1        0.2343
     10 C          66.4403   93.2732   15.2061 C.3     1  UNL1        0.1929
     11 O          66.6146   94.2817   14.1096 O.3     1  UNL1       -0.3449
     12 C          66.0935   93.9910   12.7333 C.3     1  UNL1        0.1929
     13 C          65.3982   92.6917   12.4537 C.3     1  UNL1        0.2343
     14 C          64.3598   86.6968   14.7292 C.3     1  UNL1        0.1852
     15 C          62.2524   84.8072   16.3534 C.3     1  UNL1        0.1316
     16 N          62.9149   84.4710   15.0503 N.ar    1  UNL1       -0.3124
     17 C          63.8835   85.3395   14.3038 C.ar    1  UNL1        0.1329
     18 N          64.2923   84.6125   13.0570 N.ar    1  UNL1       -0.2303
     19 C          63.5762   83.2946   13.0330 C.ar    1  UNL1        0.1006
     20 C          63.5894   82.1630   12.0486 C.ar    1  UNL1        0.0502
     21 C          62.7513   80.9439   12.2961 C.ar    1  UNL1        0.1417
     22 F          62.7644   79.8122   11.3116 F       1  UNL1       -0.2041
     23 C          61.9000   80.8564   13.5280 C.ar    1  UNL1        0.0312
     24 C          61.8868   81.9881   14.5124 C.ar    1  UNL1        0.0211
     25 C          62.7249   83.2072   14.2649 C.ar    1  UNL1        0.0788
@<TRIPOS>BOND
     1    15    16    1
     2    16    17   ar
     3    17    14    1
     4    14     1    1
     5     1     2    1
     6     2     3    2
     7     3     8    1
     8     8     9    1
     9     9    10    1
    10    10    11    1
    11    11    12    1
    12    12    13    1
    13     3     4    1
    14     4     5    1
    15     5     6    2
    16     5     7    1
    17    17    18   ar
    18    18    19   ar
    19    19    20   ar
    20    20    21   ar
    21    21    22    1
    22    21    23   ar
    23    23    24   ar
    24    24    25   ar
    25    25    16   ar
    26     7     1    2
    27    25    19   ar
    28    13     8    1
@<TRIPOS>MOLECULE
*****
 25 28 0 0 0
SMALL
GASTEIGER

@<TRIPOS>ATOM
      1 C          64.7572   91.3544   13.4747 C.2     1  UNL1        0.3563
      2 N          65.1201   92.1899   12.2829 N.2     1  UNL1       -0.0039
      3 C          66.4720   92.8348   12.2027 C.2     1  UNL1        0.3159
      4 C          67.4610   92.6443   13.3143 C.3     1  UNL1        0.2333
      5 C          67.0982   91.8089   14.5060 C.2     1  UNL1        0.3644
      6 O          68.0872   91.6184   15.6176 O.2     1  UNL1       -0.2422
      7 N          65.7462   91.1639   14.5863 N.am    1  UNL1        0.0288
      8 N          66.8349   93.6704   11.0109 N.pl3   1  UNL1       -0.1888
      9 C          66.5003   95.1324   10.9901 C.3     1  UNL1        0.2343
     10 C          66.8631   95.9679    9.7984 C.3     1  UNL1        0.1929
     11 O          67.5606   95.3414    8.6275 O.3     1  UNL1       -0.3449
     12 C          67.8951   93.8793    8.6484 C.3     1  UNL1        0.1929
     13 C          67.5323   93.0438    9.8401 C.3     1  UNL1        0.2343
     14 C          63.4054   90.7094   13.5549 C.3     1  UNL1        0.1852
     15 C          61.9756   90.4009   10.6377 C.3     1  UNL1        0.1316
     16 N          62.4879   89.2791   11.4915 N.ar    1  UNL1       -0.3124
     17 C          63.1451   89.4209   12.8324 C.ar    1  UNL1        0.1329
     18 N          63.4962   88.0479   13.3240 N.ar    1  UNL1       -0.2303
     19 C          63.0561   87.0576   12.2869 C.ar    1  UNL1        0.1006
     20 C          63.1423   85.5613   12.2275 C.ar    1  UNL1        0.0502
     21 C          62.6052   84.8259   11.0356 C.ar    1  UNL1        0.1417
     22 F          62.6914   83.3295   10.9761 F       1  UNL1       -0.2041
     23 C          61.9820   85.5868    9.9030 C.ar    1  UNL1        0.0312
     24 C          61.8959   87.0831    9.9624 C.ar    1  UNL1        0.0211
     25 C          62.4329   87.8185   11.1544 C.ar    1  UNL1        0.0788
@<TRIPOS>BOND
     1    15    16    1
     2    16    17   ar
     3    17    14    1
     4    14     1    1
     5     1     2    1
     6     2     3    2
     7     3     8    1
     8     8     9    1
     9     9    10    1
    10    10    11    1
    11    11    12    1
    12    12    13    1
    13     3     4    1
    14     4     5    1
    15     5     6    2
    16     5     7    1
    17    17    18   ar
    18    18    19   ar
    19    19    20   ar
    20    20    21   ar
    21    21    22    1
    22    21    23   ar
    23    23    24   ar
    24    24    25   ar
    25    25    16   ar
    26     7     1    2
    27    25    19   ar
    28    13     8    1
@<TRIPOS>MOLECULE
*****
 25 28 0 0 0
SMALL
GASTEIGER

@<TRIPOS>ATOM
      1 C          64.6564   91.2284   13.5840 C.2     1  UNL1        0.3563
      2 N          65.0449   91.9480   12.3264 N.2     1  UNL1       -0.0039
      3 C          66.4110   92.5545   12.2008 C.2     1  UNL1        0.3159
      4 C          67.3887   92.4415   13.3327 C.3     1  UNL1        0.2333
      5 C          67.0004   91.7219   14.5902 C.2     1  UNL1        0.3644
      6 O          67.9781   91.6089   15.7221 O.2     1  UNL1       -0.2422
      7 N          65.6342   91.1153   14.7159 N.am    1  UNL1        0.0288
      8 N          66.7994   93.2742   10.9433 N.pl3   1  UNL1       -0.1888
      9 C          67.7083   92.6121    9.9505 C.3     1  UNL1        0.2343
     10 C          68.0967   93.3316    8.6931 C.3     1  UNL1        0.1929
     11 O          67.5763   94.7133    8.4283 O.3     1  UNL1       -0.3449
     12 C          66.6674   95.3754    9.4210 C.3     1  UNL1        0.1929
     13 C          66.2789   94.6558   10.6785 C.3     1  UNL1        0.2343
     14 C          63.2903   90.6219   13.7095 C.3     1  UNL1        0.1852
     15 C          63.7077   87.4399   13.1176 C.3     1  UNL1        0.1316
     16 N          62.8942   88.3913   12.2909 N.ar    1  UNL1       -0.3124
     17 C          62.7024   89.8538   12.5630 C.ar    1  UNL1        0.1329
     18 N          61.8195   90.4135   11.4873 N.ar    1  UNL1       -0.2303
     19 C          61.4656   89.2968   10.5504 C.ar    1  UNL1        0.1006
     20 C          60.6243   89.2566    9.3092 C.ar    1  UNL1        0.0502
     21 C          60.4473   87.9665    8.5647 C.ar    1  UNL1        0.1417
     22 F          59.6060   87.9262    7.3234 F       1  UNL1       -0.2041
     23 C          61.1116   86.7167    9.0613 C.ar    1  UNL1        0.0312
     24 C          61.9529   86.7569   10.3025 C.ar    1  UNL1        0.0211
     25 C          62.1299   88.0470   11.0471 C.ar    1  UNL1        0.0788
@<TRIPOS>BOND
     1    15    16    1
     2    16    17   ar
     3    17    14    1
     4    14     1    1
     5     1     2    1
     6     2     3    2
     7     3     8    1
     8     8     9    1
     9     9    10    1
    10    10    11    1
    11    11    12    1
    12    12    13    1
    13     3     4    1
    14     4     5    1
    15     5     6    2
    16     5     7    1
    17    17    18   ar
    18    18    19   ar
    19    19    20   ar
    20    20    21   ar
    21    21    22    1
    22    21    23   ar
    23    23    24   ar
    24    24    25   ar
    25    25    16   ar
    26     7     1    2
    27    25    19   ar
    28    13     8    1
@<TRIPOS>MOLECULE
*****
 25 28 0 0 0
SMALL
GASTEIGER

@<TRIPOS>ATOM
      1 C          61.2892   88.5679   10.1620 C.2     1  UNL1        0.3563
      2 N          62.5707   89.2423   10.5535 N.2     1  UNL1       -0.0039
      3 C          62.5371   90.5732   11.2444 C.2     1  UNL1        0.3159
      4 C          61.2222   91.2299   11.5438 C.3     1  UNL1        0.2333
      5 C          59.9408   90.5556   11.1524 C.2     1  UNL1        0.3644
      6 O          58.6258   91.2123   11.4518 O.2     1  UNL1       -0.2422
      7 N          59.9743   89.2246   10.4615 N.am    1  UNL1        0.0288
      8 N          63.8186   91.2476   11.6359 N.pl3   1  UNL1       -0.1888
      9 C          64.3044   91.1702   13.0529 C.3     1  UNL1        0.2343
     10 C          65.5857   91.8445   13.4444 C.3     1  UNL1        0.1929
     11 O          66.3813   92.5962   12.4189 O.3     1  UNL1       -0.3449
     12 C          65.8956   92.6737   11.0018 C.3     1  UNL1        0.1929
     13 C          64.6142   91.9994   10.6103 C.3     1  UNL1        0.2343
     14 C          61.3228   87.2369    9.4712 C.3     1  UNL1        0.1852
     15 C          63.1884   84.9813    8.0285 C.3     1  UNL1        0.1316
     16 N          62.8182   85.0214    9.4816 N.ar    1  UNL1       -0.3124
     17 C          61.9607   86.0582   10.1447 C.ar    1  UNL1        0.1329
     18 N          61.8531   85.7092   11.5995 N.ar    1  UNL1       -0.2303
     19 C          62.6441   84.4568   11.8356 C.ar    1  UNL1        0.1006
     20 C          62.8983   83.6485   13.0733 C.ar    1  UNL1        0.0502
     21 C          63.7490   82.4151   13.0021 C.ar    1  UNL1        0.1417
     22 F          64.0032   81.6068   14.2399 F       1  UNL1       -0.2041
     23 C          64.3454   81.9900   11.6931 C.ar    1  UNL1        0.0312
     24 C          64.0912   82.7983   10.4553 C.ar    1  UNL1        0.0211
     25 C          63.2406   84.0317   10.5266 C.ar    1  UNL1        0.0788
@<TRIPOS>BOND
     1    15    16    1
     2    16    17   ar
     3    17    14    1
     4    14     1    1
     5     1     2    1
     6     2     3    2
     7     3     8    1
     8     8     9    1
     9     9    10    1
    10    10    11    1
    11    11    12    1
    12    12    13    1
    13     3     4    1
    14     4     5    1
    15     5     6    2
    16     5     7    1
    17    17    18   ar
    18    18    19   ar
    19    19    20   ar
    20    20    21   ar
    21    21    22    1
    22    21    23   ar
    23    23    24   ar
    24    24    25   ar
    25    25    16   ar
    26     7     1    2
    27    25    19   ar
    28    13     8    1
@<TRIPOS>MOLECULE
*****
 25 28 0 0 0
SMALL
GASTEIGER

@<TRIPOS>ATOM
      1 C          63.0635   89.5639   12.2479 C.2     1  UNL1        0.3563
      2 N          63.9300   90.5970   11.5907 N.2     1  UNL1       -0.0039
      3 C          64.6558   91.6091   12.4267 C.2     1  UNL1        0.3159
      4 C          64.5151   91.5881   13.9200 C.3     1  UNL1        0.2333
      5 C          63.6486   90.5550   14.5772 C.2     1  UNL1        0.3644
      6 O          63.5080   90.5340   16.0704 O.2     1  UNL1       -0.2422
      7 N          62.9228   89.5429   13.7412 N.am    1  UNL1        0.0288
      8 N          65.5223   92.6422   11.7695 N.pl3   1  UNL1       -0.1888
      9 C          65.7581   93.9617   12.4428 C.3     1  UNL1        0.2343
     10 C          66.6246   94.9948   11.7856 C.3     1  UNL1        0.1929
     11 O          67.2552   94.7084   10.4552 O.3     1  UNL1       -0.3449
     12 C          67.0194   93.3889    9.7819 C.3     1  UNL1        0.1929
     13 C          66.1530   92.3558   10.4390 C.3     1  UNL1        0.2343
     14 C          62.3377   88.5518   11.4119 C.3     1  UNL1        0.1852
     15 C          61.8590   86.2021    9.1985 C.3     1  UNL1        0.1316
     16 N          62.3820   86.0084   10.5910 N.ar    1  UNL1       -0.3124
     17 C          62.6021   87.0884   11.6083 C.ar    1  UNL1        0.1329
     18 N          63.1330   86.4481   12.8566 N.ar    1  UNL1       -0.2303
     19 C          63.2410   84.9723   12.6107 C.ar    1  UNL1        0.1006
     20 C          63.7020   83.8409   13.4809 C.ar    1  UNL1        0.0502
     21 C          63.6988   82.4377   12.9509 C.ar    1  UNL1        0.1417
     22 F          64.1598   81.3062   13.8211 F       1  UNL1       -0.2041
     23 C          63.2347   82.1659   11.5506 C.ar    1  UNL1        0.0312
     24 C          62.7738   83.2974   10.6804 C.ar    1  UNL1        0.0211
     25 C          62.7769   84.7006   11.2104 C.ar    1  UNL1        0.0788
@<TRIPOS>BOND
     1    15    16    1
     2    16    17   ar
     3    17    14    1
     4    14     1    1
     5     1     2    1
     6     2     3    2
     7     3     8    1
     8     8     9    1
     9     9    10    1
    10    10    11    1
    11    11    12    1
    12    12    13    1
    13     3     4    1
    14     4     5    1
    15     5     6    2
    16     5     7    1
    17    17    18   ar
    18    18    19   ar
    19    19    20   ar
    20    20    21   ar
    21    21    22    1
    22    21    23   ar
    23    23    24   ar
    24    24    25   ar
    25    25    16   ar
    26     7     1    2
    27    25    19   ar
    28    13     8    1
