@<TRIPOS>MOLECULE
*****
 42 45 0 0 0
SMALL
GASTEIGER

@<TRIPOS>ATOM
      1 N          62.9582   89.6974   13.6148 N.am    1  UNL1       -0.2927
      2 C          63.9557   89.1643   14.6001 C.2     1  UNL1        0.2508
      3 O          65.3638   89.6815   14.5963 O.2     1  UNL1       -0.2700
      4 H          62.0341   89.3579   13.6173 H       1  UNL1        0.1502
      5 C          63.5452   88.1140   15.5893 C.ar    1  UNL1        0.1068
      6 C          63.1129   88.5118   16.9695 C.ar    1  UNL1        0.0108
      7 C          62.7024   87.4615   17.9586 C.ar    1  UNL1        0.0210
      8 C          62.7242   86.0135   17.5675 C.ar    1  UNL1        0.1021
      9 N          63.1566   85.6158   16.1874 N.ar    1  UNL1       -0.2097
     10 C          63.5671   86.6661   15.1982 C.ar    1  UNL1        0.2340
     11 O          63.9994   86.2684   13.8181 O.3     1  UNL1       -0.4351
     12 C          63.7394   84.8767   13.3225 C.ar    1  UNL1        0.1576
     13 C          64.4398   83.7117   13.9566 C.ar    1  UNL1        0.0384
     14 C          64.1798   82.3199   13.4610 C.ar    1  UNL1        0.0070
     15 C          63.2194   82.0933   12.3313 C.ar    1  UNL1        0.0725
     16 C          62.5190   83.2585   11.6971 C.ar    1  UNL1        0.0183
     17 C          62.7790   84.6501   12.1927 C.ar    1  UNL1        0.0921
     18 CL         62.0786   85.8152   11.5586 Cl      1  UNL1       -0.0791
     19 C          62.9593   80.7017   11.8357 C.3     1  UNL1        0.4186
     20 F          62.6993   79.3101   11.3400 F       1  UNL1       -0.1659
     21 F          62.7388   80.2407   13.2459 F       1  UNL1       -0.1659
     22 F          63.1798   81.1627   10.4254 F       1  UNL1       -0.1659
     23 C          63.3687   90.7477   12.6257 C.3     1  UNL1        0.1789
     24 C          60.1399   88.6912    9.4129 C.3     1  UNL1        0.0758
     25 C          59.8243   88.4276   10.8555 C.3     1  UNL1        0.0390
     26 C          60.8722   89.1025   11.6900 C.3     1  UNL1        0.0949
     27 N          61.8355   89.7831   10.7632 N.am    1  UNL1       -0.2767
     28 C          63.0399   90.5783   11.1720 C.2     1  UNL1        0.2461
     29 O          63.9154   91.2041   10.1272 O.2     1  UNL1       -0.2730
     30 C          61.3829   89.5289    9.3559 C.3     1  UNL1        0.1091
     31 C          59.2710   86.7337    7.9422 C.3     1  UNL1        0.0859
     32 N          59.3511   88.2028    8.2342 N.3     1  UNL1       -0.2960
     33 H          58.3937   88.5297    8.3648 H       1  UNL1        0.1233
     34 C          64.1081   91.9673   13.0902 C.3     1  UNL1        0.1715
     35 O          65.5730   92.1117   12.8015 O.3     1  UNL1       -0.3467
     36 C          66.1154   93.4219   12.3126 C.3     1  UNL1        0.1687
     37 C          66.8331   93.4926   10.9973 C.ar    1  UNL1        0.0073
     38 C          67.5972   92.3035   10.4949 C.ar    1  UNL1       -0.0019
     39 C          68.3148   92.3741    9.1797 C.ar    1  UNL1       -0.0002
     40 C          68.2683   93.6339    8.3667 C.ar    1  UNL1       -0.0000
     41 C          67.5043   94.8229    8.8690 C.ar    1  UNL1       -0.0002
     42 C          66.7866   94.7523   10.1843 C.ar    1  UNL1       -0.0019
@<TRIPOS>BOND
     1    31    32    1
     2    24    32    1
     3    24    25    1
     4    25    26    1
     5    26    27    1
     6    27    28   am
     7    28    29    2
     8    28    23    1
     9    23    34    1
    10    34    35    1
    11    35    36    1
    12    36    37    1
    13    37    38   ar
    14    38    39   ar
    15    39    40   ar
    16    40    41   ar
    17    41    42   ar
    18    23     1    1
    19     1     2   am
    20     2     3    2
    21     2     5    1
    22     5     6   ar
    23     6     7   ar
    24     7     8   ar
    25     8     9   ar
    26     9    10   ar
    27    10    11    1
    28    11    12    1
    29    12    13   ar
    30    13    14   ar
    31    14    15   ar
    32    15    19    1
    33    19    20    1
    34    19    21    1
    35    19    22    1
    36    15    16   ar
    37    16    17   ar
    38    17    18    1
    39    27    30    1
    40    30    24    1
    41    42    37   ar
    42    10     5   ar
    43    17    12   ar
    44    32    33    1
    45     1     4    1
@<TRIPOS>MOLECULE
*****
 42 45 0 0 0
SMALL
GASTEIGER

@<TRIPOS>ATOM
      1 N          63.7473   89.2653   13.7652 N.am    1  UNL1       -0.2927
      2 C          63.4000   89.3873   15.2193 C.2     1  UNL1        0.2508
      3 O          63.1773   90.7409   15.8262 O.2     1  UNL1       -0.2700
      4 H          63.8935   88.3769   13.3669 H       1  UNL1        0.1502
      5 C          63.2755   88.1558   16.0666 C.ar    1  UNL1        0.1068
      6 C          62.8702   88.2737   17.5061 C.ar    1  UNL1        0.0108
      7 C          62.7457   87.0422   18.3534 C.ar    1  UNL1        0.0210
      8 C          63.0264   85.6928   17.7612 C.ar    1  UNL1        0.1021
      9 N          63.4316   85.5751   16.3218 N.ar    1  UNL1       -0.2097
     10 C          63.5561   86.8066   15.4745 C.ar    1  UNL1        0.2340
     11 O          63.9614   86.6888   14.0352 O.3     1  UNL1       -0.4351
     12 C          63.7564   85.3965   13.3016 C.ar    1  UNL1        0.1576
     13 C          62.6077   85.2491   12.3484 C.ar    1  UNL1        0.0384
     14 C          62.4027   83.9568   11.6149 C.ar    1  UNL1        0.0070
     15 C          63.3466   82.8119   11.8345 C.ar    1  UNL1        0.0725
     16 C          64.4954   82.9593   12.7878 C.ar    1  UNL1        0.0183
     17 C          64.7003   84.2516   13.5213 C.ar    1  UNL1        0.0921
     18 CL         65.8492   84.3990   14.4745 Cl      1  UNL1       -0.0791
     19 C          63.1417   81.5197   11.1010 C.3     1  UNL1        0.4186
     20 F          62.9369   80.2274   10.3676 F       1  UNL1       -0.1659
     21 F          62.3381   80.9932   12.2530 F       1  UNL1       -0.1659
     22 F          63.9453   82.0461    9.9491 F       1  UNL1       -0.1659
     23 C          63.8718   90.4968   12.9180 C.3     1  UNL1        0.1789
     24 C          66.4985   94.1635   10.7656 C.3     1  UNL1        0.0758
     25 C          65.3266   93.6904    9.9575 C.3     1  UNL1        0.0390
     26 C          64.6434   92.5989   10.7269 C.3     1  UNL1        0.0949
     27 N          65.3931   92.3974   12.0105 N.am    1  UNL1       -0.2767
     28 C          65.0555   91.4035   13.0820 C.2     1  UNL1        0.2461
     29 O          65.9015   91.3162   14.3175 O.2     1  UNL1       -0.2730
     30 C          66.5395   93.3644   12.0344 C.3     1  UNL1        0.1091
     31 C          67.6384   95.6034    8.9279 C.3     1  UNL1        0.0859
     32 N          67.4604   95.2457   10.3737 N.3     1  UNL1       -0.2960
     33 H          67.1593   96.0947   10.8522 H       1  UNL1        0.1233
     34 C          62.8128   90.8216   11.9066 C.3     1  UNL1        0.1715
     35 O          61.6101   89.9357   11.7691 O.3     1  UNL1       -0.3467
     36 C          60.9094   89.8222   10.4477 C.3     1  UNL1        0.1687
     37 C          60.9631   88.5356    9.6785 C.ar    1  UNL1        0.0073
     38 C          59.7663   88.0773    8.8989 C.ar    1  UNL1       -0.0019
     39 C          59.8200   86.7907    8.1297 C.ar    1  UNL1       -0.0002
     40 C          61.0705   85.9623    8.1400 C.ar    1  UNL1       -0.0000
     41 C          62.2673   86.4205    8.9196 C.ar    1  UNL1       -0.0002
     42 C          62.2136   87.7072    9.6888 C.ar    1  UNL1       -0.0019
@<TRIPOS>BOND
     1    31    32    1
     2    24    32    1
     3    24    25    1
     4    25    26    1
     5    26    27    1
     6    27    28   am
     7    28    29    2
     8    28    23    1
     9    23    34    1
    10    34    35    1
    11    35    36    1
    12    36    37    1
    13    37    38   ar
    14    38    39   ar
    15    39    40   ar
    16    40    41   ar
    17    41    42   ar
    18    23     1    1
    19     1     2   am
    20     2     3    2
    21     2     5    1
    22     5     6   ar
    23     6     7   ar
    24     7     8   ar
    25     8     9   ar
    26     9    10   ar
    27    10    11    1
    28    11    12    1
    29    12    13   ar
    30    13    14   ar
    31    14    15   ar
    32    15    19    1
    33    19    20    1
    34    19    21    1
    35    19    22    1
    36    15    16   ar
    37    16    17   ar
    38    17    18    1
    39    27    30    1
    40    30    24    1
    41    42    37   ar
    42    10     5   ar
    43    17    12   ar
    44    32    33    1
    45     1     4    1
@<TRIPOS>MOLECULE
*****
 42 45 0 0 0
SMALL
GASTEIGER

@<TRIPOS>ATOM
      1 N          63.2596   89.4395   12.0042 N.am    1  UNL1       -0.2927
      2 C          61.8082   89.1342   11.7800 C.2     1  UNL1        0.2508
      3 O          60.7757   89.6575   12.7341 O.2     1  UNL1       -0.2700
      4 H          63.9373   89.0961   11.3781 H       1  UNL1        0.1502
      5 C          61.3894   88.3057   10.6019 C.ar    1  UNL1        0.1068
      6 C          60.4311   88.8666    9.5933 C.ar    1  UNL1        0.0108
      7 C          60.0122   88.0380    8.4151 C.ar    1  UNL1        0.0210
      8 C          60.5516   86.6486    8.2456 C.ar    1  UNL1        0.1021
      9 N          61.5098   86.0878    9.2541 N.ar    1  UNL1       -0.2097
     10 C          61.9287   86.9164   10.4323 C.ar    1  UNL1        0.2340
     11 O          62.8869   86.3556   11.4409 O.3     1  UNL1       -0.4351
     12 C          62.7762   84.9206   11.8637 C.ar    1  UNL1        0.1576
     13 C          62.2028   84.5764   13.2063 C.ar    1  UNL1        0.0384
     14 C          62.0920   83.1415   13.6291 C.ar    1  UNL1        0.0070
     15 C          62.5547   82.0507   12.7092 C.ar    1  UNL1        0.0725
     16 C          63.1281   82.3949   11.3665 C.ar    1  UNL1        0.0183
     17 C          63.2388   83.8298   10.9438 C.ar    1  UNL1        0.0921
     18 CL         63.8122   84.1741    9.6010 Cl      1  UNL1       -0.0791
     19 C          62.4439   80.6158   13.1319 C.3     1  UNL1        0.4186
     20 F          62.3332   79.1809   13.5547 F       1  UNL1       -0.1659
     21 F          62.7884   80.1789   11.7390 F       1  UNL1       -0.1659
     22 F          62.0995   81.0528   14.5249 F       1  UNL1       -0.1659
     23 C          63.6785   90.2680   13.1824 C.3     1  UNL1        0.1789
     24 C          66.5257   93.5703   10.7401 C.3     1  UNL1        0.0758
     25 C          65.1794   93.3414   10.1196 C.3     1  UNL1        0.0390
     26 C          64.4479   92.3351   10.9575 C.3     1  UNL1        0.0949
     27 N          65.3421   91.9420   12.0958 N.am    1  UNL1       -0.2767
     28 C          65.0103   90.9581   13.1785 C.2     1  UNL1        0.2461
     29 O          66.0103   90.6644   14.2572 O.2     1  UNL1       -0.2730
     30 C          66.6262   92.7054   11.9615 C.3     1  UNL1        0.1091
     31 C          67.6184   94.8745    8.7767 C.3     1  UNL1        0.0859
     32 N          67.5855   94.5007   10.2290 N.3     1  UNL1       -0.2960
     33 H          67.4927   95.3699   10.7547 H       1  UNL1        0.1233
     34 C          62.7655   90.4065   14.3645 C.3     1  UNL1        0.1715
     35 O          63.3398   90.5766   15.7398 O.3     1  UNL1       -0.3467
     36 C          63.0707   89.5477   16.7975 C.3     1  UNL1        0.1687
     37 C          63.3543   88.1002   16.5250 C.ar    1  UNL1        0.0073
     38 C          62.7508   87.0403   17.3983 C.ar    1  UNL1       -0.0019
     39 C          63.0345   85.5928   17.1259 C.ar    1  UNL1       -0.0002
     40 C          63.9217   85.2051   15.9802 C.ar    1  UNL1       -0.0000
     41 C          64.5252   86.2649   15.1070 C.ar    1  UNL1       -0.0002
     42 C          64.2416   87.7125   15.3794 C.ar    1  UNL1       -0.0019
@<TRIPOS>BOND
     1    31    32    1
     2    24    32    1
     3    24    25    1
     4    25    26    1
     5    26    27    1
     6    27    28   am
     7    28    29    2
     8    28    23    1
     9    23    34    1
    10    34    35    1
    11    35    36    1
    12    36    37    1
    13    37    38   ar
    14    38    39   ar
    15    39    40   ar
    16    40    41   ar
    17    41    42   ar
    18    23     1    1
    19     1     2   am
    20     2     3    2
    21     2     5    1
    22     5     6   ar
    23     6     7   ar
    24     7     8   ar
    25     8     9   ar
    26     9    10   ar
    27    10    11    1
    28    11    12    1
    29    12    13   ar
    30    13    14   ar
    31    14    15   ar
    32    15    19    1
    33    19    20    1
    34    19    21    1
    35    19    22    1
    36    15    16   ar
    37    16    17   ar
    38    17    18    1
    39    27    30    1
    40    30    24    1
    41    42    37   ar
    42    10     5   ar
    43    17    12   ar
    44    32    33    1
    45     1     4    1
@<TRIPOS>MOLECULE
*****
 42 45 0 0 0
SMALL
GASTEIGER

@<TRIPOS>ATOM
      1 N          62.7063   89.1952   11.3099 N.am    1  UNL1       -0.2927
      2 C          61.2782   89.0898   10.8634 C.2     1  UNL1        0.2508
      3 O          60.2297   89.9591   11.4922 O.2     1  UNL1       -0.2700
      4 H          63.3944   88.6247   10.8972 H       1  UNL1        0.1502
      5 C          60.8984   88.1153    9.7882 C.ar    1  UNL1        0.1068
      6 C          59.8004   88.4531    8.8236 C.ar    1  UNL1        0.0108
      7 C          59.4207   87.4786    7.7484 C.ar    1  UNL1        0.0210
      8 C          60.1389   86.1662    7.6378 C.ar    1  UNL1        0.1021
      9 N          61.2367   85.8285    8.6025 N.ar    1  UNL1       -0.2097
     10 C          61.6165   86.8031    9.6777 C.ar    1  UNL1        0.2340
     11 O          62.7144   86.4653   10.6423 O.3     1  UNL1       -0.4351
     12 C          62.7375   85.1236   11.3125 C.ar    1  UNL1        0.1576
     13 C          62.2266   84.9769   12.7152 C.ar    1  UNL1        0.0384
     14 C          62.2497   83.6351   13.3854 C.ar    1  UNL1        0.0070
     15 C          62.7837   82.4400   12.6529 C.ar    1  UNL1        0.0725
     16 C          63.2946   82.5867   11.2502 C.ar    1  UNL1        0.0183
     17 C          63.2715   83.9284   10.5801 C.ar    1  UNL1        0.0921
     18 CL         63.7824   84.0751    9.1774 Cl      1  UNL1       -0.0791
     19 C          62.8068   81.0983   13.3231 C.3     1  UNL1        0.4186
     20 F          62.8299   79.7566   13.9933 F       1  UNL1       -0.1659
     21 F          61.3090   81.1118   13.4019 F       1  UNL1       -0.1659
     22 F          64.3047   81.0847   13.2443 F       1  UNL1       -0.1659
     23 C          63.0860   90.1697   12.3851 C.3     1  UNL1        0.1789
     24 C          67.2673   92.3112   14.0902 C.3     1  UNL1        0.0758
     25 C          66.7437   91.2063   14.9593 C.3     1  UNL1        0.0390
     26 C          65.4971   90.6671   14.3226 C.3     1  UNL1        0.0949
     27 N          65.2504   91.4386   13.0601 N.am    1  UNL1       -0.2767
     28 C          64.1098   91.2305   12.1083 C.2     1  UNL1        0.2461
     29 O          63.9930   92.0832   10.8798 O.2     1  UNL1       -0.2730
     30 C          66.3444   92.4547   12.9165 C.3     1  UNL1        0.1091
     31 C          68.8964   93.4587   15.7573 C.3     1  UNL1        0.0859
     32 N          68.4979   93.1289   14.3494 N.3     1  UNL1       -0.2960
     33 H          69.2801   92.6240   13.9325 H       1  UNL1        0.1233
     34 C          62.4421   90.0835   13.7370 C.3     1  UNL1        0.1715
     35 O          63.1728   90.5809   14.9490 O.3     1  UNL1       -0.3467
     36 C          63.1302   89.7946   16.2256 C.3     1  UNL1        0.1687
     37 C          63.3772   88.3153   16.2039 C.ar    1  UNL1        0.0073
     38 C          62.7632   87.4369   17.2535 C.ar    1  UNL1       -0.0019
     39 C          63.0102   85.9576   17.2318 C.ar    1  UNL1       -0.0002
     40 C          63.8712   85.3566   16.1606 C.ar    1  UNL1       -0.0000
     41 C          64.4852   86.2349   15.1111 C.ar    1  UNL1       -0.0002
     42 C          64.2382   87.7143   15.1327 C.ar    1  UNL1       -0.0019
@<TRIPOS>BOND
     1    31    32    1
     2    24    32    1
     3    24    25    1
     4    25    26    1
     5    26    27    1
     6    27    28   am
     7    28    29    2
     8    28    23    1
     9    23    34    1
    10    34    35    1
    11    35    36    1
    12    36    37    1
    13    37    38   ar
    14    38    39   ar
    15    39    40   ar
    16    40    41   ar
    17    41    42   ar
    18    23     1    1
    19     1     2   am
    20     2     3    2
    21     2     5    1
    22     5     6   ar
    23     6     7   ar
    24     7     8   ar
    25     8     9   ar
    26     9    10   ar
    27    10    11    1
    28    11    12    1
    29    12    13   ar
    30    13    14   ar
    31    14    15   ar
    32    15    19    1
    33    19    20    1
    34    19    21    1
    35    19    22    1
    36    15    16   ar
    37    16    17   ar
    38    17    18    1
    39    27    30    1
    40    30    24    1
    41    42    37   ar
    42    10     5   ar
    43    17    12   ar
    44    32    33    1
    45     1     4    1
@<TRIPOS>MOLECULE
*****
 42 45 0 0 0
SMALL
GASTEIGER

@<TRIPOS>ATOM
      1 N          62.9995   89.5136   13.4054 N.am    1  UNL1       -0.2927
      2 C          63.9467   89.1862   14.5214 C.2     1  UNL1        0.2508
      3 O          65.2757   89.8769   14.6042 O.2     1  UNL1       -0.2700
      4 H          62.1273   89.0603   13.3511 H       1  UNL1        0.1502
      5 C          63.5650   88.1681   15.5547 C.ar    1  UNL1        0.1068
      6 C          63.1920   88.6083   16.9394 C.ar    1  UNL1        0.0108
      7 C          62.8102   87.5902   17.9727 C.ar    1  UNL1        0.0210
      8 C          62.8015   86.1319   17.6214 C.ar    1  UNL1        0.1021
      9 N          63.1745   85.6917   16.2368 N.ar    1  UNL1       -0.2097
     10 C          63.5562   86.7098   15.2035 C.ar    1  UNL1        0.2340
     11 O          63.9292   86.2697   13.8189 O.3     1  UNL1       -0.4351
     12 C          63.6687   84.8576   13.3851 C.ar    1  UNL1        0.1576
     13 C          64.1098   83.7139   14.2496 C.ar    1  UNL1        0.0384
     14 C          63.8493   82.3018   13.8158 C.ar    1  UNL1        0.0070
     15 C          63.1477   82.0334   12.5174 C.ar    1  UNL1        0.0725
     16 C          62.7067   83.1772   11.6528 C.ar    1  UNL1        0.0183
     17 C          62.9672   84.5892   12.0867 C.ar    1  UNL1        0.0921
     18 CL         62.5261   85.7329   11.2221 Cl      1  UNL1       -0.0791
     19 C          62.8872   80.6214   12.0836 C.3     1  UNL1        0.4186
     20 F          62.6267   79.2094   11.6497 F       1  UNL1       -0.1659
     21 F          63.0066   81.0404   10.6483 F       1  UNL1       -0.1659
     22 F          62.7679   80.2024   13.5189 F       1  UNL1       -0.1659
     23 C          63.3812   90.5317   12.3721 C.3     1  UNL1        0.1789
     24 C          59.9386   88.3402    9.4872 C.3     1  UNL1        0.0758
     25 C          59.8349   87.9904   10.9422 C.3     1  UNL1        0.0390
     26 C          60.9246   88.7177   11.6726 C.3     1  UNL1        0.0949
     27 N          61.7018   89.5170   10.6691 N.am    1  UNL1       -0.2767
     28 C          62.8814   90.3954   10.9644 C.2     1  UNL1        0.2461
     29 O          63.5609   91.1376    9.8520 O.2     1  UNL1       -0.2730
     30 C          61.0925   89.2837    9.3185 C.3     1  UNL1        0.1091
     31 C          59.4438   86.6281    7.5967 C.3     1  UNL1        0.0859
     32 N          59.0454   87.8352    8.3931 N.3     1  UNL1       -0.2960
     33 H          58.1457   87.6204    8.8231 H       1  UNL1        0.1233
     34 C          64.2629   91.6860   12.7464 C.3     1  UNL1        0.1715
     35 O          65.1754   92.2954   11.7235 O.3     1  UNL1       -0.3467
     36 C          66.4099   93.0266   12.1607 C.3     1  UNL1        0.1687
     37 C          66.9929   92.7690   13.5185 C.ar    1  UNL1        0.0073
     38 C          66.2827   93.2601   14.7451 C.ar    1  UNL1       -0.0019
     39 C          66.8657   93.0026   16.1030 C.ar    1  UNL1       -0.0002
     40 C          68.1588   92.2539   16.2343 C.ar    1  UNL1       -0.0000
     41 C          68.8690   91.7628   15.0078 C.ar    1  UNL1       -0.0002
     42 C          68.2861   92.0203   13.6498 C.ar    1  UNL1       -0.0019
@<TRIPOS>BOND
     1    31    32    1
     2    24    32    1
     3    24    25    1
     4    25    26    1
     5    26    27    1
     6    27    28   am
     7    28    29    2
     8    28    23    1
     9    23    34    1
    10    34    35    1
    11    35    36    1
    12    36    37    1
    13    37    38   ar
    14    38    39   ar
    15    39    40   ar
    16    40    41   ar
    17    41    42   ar
    18    23     1    1
    19     1     2   am
    20     2     3    2
    21     2     5    1
    22     5     6   ar
    23     6     7   ar
    24     7     8   ar
    25     8     9   ar
    26     9    10   ar
    27    10    11    1
    28    11    12    1
    29    12    13   ar
    30    13    14   ar
    31    14    15   ar
    32    15    19    1
    33    19    20    1
    34    19    21    1
    35    19    22    1
    36    15    16   ar
    37    16    17   ar
    38    17    18    1
    39    27    30    1
    40    30    24    1
    41    42    37   ar
    42    10     5   ar
    43    17    12   ar
    44    32    33    1
    45     1     4    1
@<TRIPOS>MOLECULE
*****
 42 45 0 0 0
SMALL
GASTEIGER

@<TRIPOS>ATOM
      1 N          63.2418   89.5457   11.4783 N.am    1  UNL1       -0.2927
      2 C          61.7810   89.2059   11.5010 C.2     1  UNL1        0.2508
      3 O          60.8955   89.7727   12.5709 O.2     1  UNL1       -0.2700
      4 H          63.8229   89.1736   10.7761 H       1  UNL1        0.1502
      5 C          61.2055   88.2991   10.4537 C.ar    1  UNL1        0.1068
      6 C          60.1608   88.8135    9.5081 C.ar    1  UNL1        0.0108
      7 C          59.5854   87.9068    8.4609 C.ar    1  UNL1        0.0210
      8 C          60.0546   86.4857    8.3592 C.ar    1  UNL1        0.1021
      9 N          61.0993   85.9714    9.3048 N.ar    1  UNL1       -0.2097
     10 C          61.6747   86.8781   10.3520 C.ar    1  UNL1        0.2340
     11 O          62.7194   86.3637   11.2976 O.3     1  UNL1       -0.4351
     12 C          62.6793   84.9356   11.7548 C.ar    1  UNL1        0.1576
     13 C          62.1464   84.5986   13.1158 C.ar    1  UNL1        0.0384
     14 C          62.1063   83.1705   13.5731 C.ar    1  UNL1        0.0070
     15 C          62.5992   82.0795   12.6693 C.ar    1  UNL1        0.0725
     16 C          63.1321   82.4166   11.3082 C.ar    1  UNL1        0.0183
     17 C          63.1722   83.8447   10.8510 C.ar    1  UNL1        0.0921
     18 CL         63.7051   84.1818    9.4900 Cl      1  UNL1       -0.0791
     19 C          62.5591   80.6515   13.1265 C.3     1  UNL1        0.4186
     20 F          62.5191   79.2235   13.5837 F       1  UNL1       -0.1659
     21 F          62.8754   80.1964   11.7327 F       1  UNL1       -0.1659
     22 F          62.2429   81.1066   14.5203 F       1  UNL1       -0.1659
     23 C          63.8172   90.4524   12.5256 C.3     1  UNL1        0.1789
     24 C          63.7818   86.9411   16.0817 C.3     1  UNL1        0.0758
     25 C          64.2054   86.4444   14.7311 C.3     1  UNL1        0.0390
     26 C          64.1663   87.6022   13.7783 C.3     1  UNL1        0.0949
     27 N          63.7185   88.8144   14.5399 N.am    1  UNL1       -0.2767
     28 C          63.5397   90.1932   13.9767 C.2     1  UNL1        0.2461
     29 O          63.0835   91.3127   14.8647 O.2     1  UNL1       -0.2730
     30 C          63.4809   88.4059   15.9634 C.3     1  UNL1        0.1091
     31 C          62.7106   86.5093   18.4089 C.3     1  UNL1        0.0859
     32 N          63.6775   86.1177   17.3311 N.3     1  UNL1       -0.2960
     33 H          63.4277   85.1723   17.0407 H       1  UNL1        0.1233
     34 C          64.6701   91.6183   12.1217 C.3     1  UNL1        0.1715
     35 O          65.7083   92.1504   13.0646 O.3     1  UNL1       -0.3467
     36 C          66.5699   93.3082   12.6558 C.3     1  UNL1        0.1687
     37 C          67.0954   93.3935   11.2535 C.ar    1  UNL1        0.0073
     38 C          66.8050   94.6037   10.4161 C.ar    1  UNL1       -0.0019
     39 C          67.3305   94.6891    9.0137 C.ar    1  UNL1       -0.0002
     40 C          68.1463   93.5643    8.4487 C.ar    1  UNL1       -0.0000
     41 C          68.4367   92.3542    9.2861 C.ar    1  UNL1       -0.0002
     42 C          67.9113   92.2688   10.6885 C.ar    1  UNL1       -0.0019
@<TRIPOS>BOND
     1    31    32    1
     2    24    32    1
     3    24    25    1
     4    25    26    1
     5    26    27    1
     6    27    28   am
     7    28    29    2
     8    28    23    1
     9    23    34    1
    10    34    35    1
    11    35    36    1
    12    36    37    1
    13    37    38   ar
    14    38    39   ar
    15    39    40   ar
    16    40    41   ar
    17    41    42   ar
    18    23     1    1
    19     1     2   am
    20     2     3    2
    21     2     5    1
    22     5     6   ar
    23     6     7   ar
    24     7     8   ar
    25     8     9   ar
    26     9    10   ar
    27    10    11    1
    28    11    12    1
    29    12    13   ar
    30    13    14   ar
    31    14    15   ar
    32    15    19    1
    33    19    20    1
    34    19    21    1
    35    19    22    1
    36    15    16   ar
    37    16    17   ar
    38    17    18    1
    39    27    30    1
    40    30    24    1
    41    42    37   ar
    42    10     5   ar
    43    17    12   ar
    44    32    33    1
    45     1     4    1
@<TRIPOS>MOLECULE
*****
 42 45 0 0 0
SMALL
GASTEIGER

@<TRIPOS>ATOM
      1 N          63.3916   90.2334   14.0141 N.am    1  UNL1       -0.2927
      2 C          63.5256   88.7403   13.9639 C.2     1  UNL1        0.2508
      3 O          63.7738   88.0531   12.6539 O.2     1  UNL1       -0.2700
      4 H          63.2287   90.6844   14.8739 H       1  UNL1        0.1502
      5 C          63.4112   87.9342   15.2238 C.ar    1  UNL1        0.1068
      6 C          62.8583   88.5627   16.4686 C.ar    1  UNL1        0.0108
      7 C          62.7440   87.7566   17.7285 C.ar    1  UNL1        0.0210
      8 C          63.1825   86.3222   17.7435 C.ar    1  UNL1        0.1021
      9 N          63.7354   85.6938   16.4987 N.ar    1  UNL1       -0.2097
     10 C          63.8497   86.4999   15.2389 C.ar    1  UNL1        0.2340
     11 O          64.4025   85.8715   13.9941 O.3     1  UNL1       -0.4351
     12 C          63.9894   84.4821   13.6082 C.ar    1  UNL1        0.1576
     13 C          64.6640   83.2979   14.2346 C.ar    1  UNL1        0.0384
     14 C          64.2509   81.9084   13.8487 C.ar    1  UNL1        0.0070
     15 C          63.1632   81.7033   12.8364 C.ar    1  UNL1        0.0725
     16 C          62.4886   82.8876   12.2099 C.ar    1  UNL1        0.0183
     17 C          62.9018   84.2770   12.5958 C.ar    1  UNL1        0.0921
     18 CL         62.2272   85.4613   11.9693 Cl      1  UNL1       -0.0791
     19 C          62.7501   80.3139   12.4504 C.3     1  UNL1        0.4186
     20 F          62.3370   78.9246   12.0645 F       1  UNL1       -0.1659
     21 F          62.8056   80.6998   11.0020 F       1  UNL1       -0.1659
     22 F          62.6946   79.9281   13.8989 F       1  UNL1       -0.1659
     23 C          63.5060   91.0394   12.7543 C.3     1  UNL1        0.1789
     24 C          67.7530   92.7964   14.7169 C.3     1  UNL1        0.0758
     25 C          66.8576   92.1084   15.7044 C.3     1  UNL1        0.0390
     26 C          65.6345   91.6401   14.9731 C.3     1  UNL1        0.0949
     27 N          65.7741   92.0386   13.5337 N.am    1  UNL1       -0.2767
     28 C          64.7790   91.7696   12.4440 C.2     1  UNL1        0.2461
     29 O          65.0569   92.2309   11.0440 O.2     1  UNL1       -0.2730
     30 C          67.0834   92.7531   13.3754 C.3     1  UNL1        0.1091
     31 C          69.2112   94.4173   16.1298 C.3     1  UNL1        0.0859
     32 N          69.0844   93.4183   15.0182 N.3     1  UNL1       -0.2960
     33 H          69.7242   92.6539   15.2348 H       1  UNL1        0.1233
     34 C          62.3473   91.1153   11.8047 C.3     1  UNL1        0.1715
     35 O          62.3042   90.2210   10.6011 O.3     1  UNL1       -0.3467
     36 C          60.9843   89.7814   10.0403 C.3     1  UNL1        0.1687
     37 C          60.8783   88.4777    9.3061 C.ar    1  UNL1        0.0073
     38 C          59.6456   88.1624    8.5116 C.ar    1  UNL1       -0.0019
     39 C          59.5395   86.8587    7.7774 C.ar    1  UNL1       -0.0002
     40 C          60.6661   85.8702    7.8377 C.ar    1  UNL1       -0.0000
     41 C          61.8987   86.1854    8.6322 C.ar    1  UNL1       -0.0002
     42 C          62.0048   87.4891    9.3664 C.ar    1  UNL1       -0.0019
@<TRIPOS>BOND
     1    31    32    1
     2    24    32    1
     3    24    25    1
     4    25    26    1
     5    26    27    1
     6    27    28   am
     7    28    29    2
     8    28    23    1
     9    23    34    1
    10    34    35    1
    11    35    36    1
    12    36    37    1
    13    37    38   ar
    14    38    39   ar
    15    39    40   ar
    16    40    41   ar
    17    41    42   ar
    18    23     1    1
    19     1     2   am
    20     2     3    2
    21     2     5    1
    22     5     6   ar
    23     6     7   ar
    24     7     8   ar
    25     8     9   ar
    26     9    10   ar
    27    10    11    1
    28    11    12    1
    29    12    13   ar
    30    13    14   ar
    31    14    15   ar
    32    15    19    1
    33    19    20    1
    34    19    21    1
    35    19    22    1
    36    15    16   ar
    37    16    17   ar
    38    17    18    1
    39    27    30    1
    40    30    24    1
    41    42    37   ar
    42    10     5   ar
    43    17    12   ar
    44    32    33    1
    45     1     4    1
@<TRIPOS>MOLECULE
*****
 42 45 0 0 0
SMALL
GASTEIGER

@<TRIPOS>ATOM
      1 N          63.0416   89.5254   10.5968 N.am    1  UNL1       -0.2927
      2 C          61.5867   89.6044   10.2404 C.2     1  UNL1        0.2508
      3 O          60.7829   90.8088   10.6322 O.2     1  UNL1       -0.2700
      4 H          63.5691   88.7350   10.3396 H       1  UNL1        0.1502
      5 C          60.9356   88.4792    9.4922 C.ar    1  UNL1        0.1068
      6 C          59.8150   88.7634    8.5363 C.ar    1  UNL1        0.0108
      7 C          59.1639   87.6381    7.7881 C.ar    1  UNL1        0.0210
      8 C          59.6333   86.2286    7.9958 C.ar    1  UNL1        0.1021
      9 N          60.7538   85.9445    8.9517 N.ar    1  UNL1       -0.2097
     10 C          61.4049   87.0697    9.6999 C.ar    1  UNL1        0.2340
     11 O          62.5254   86.7856   10.6557 O.3     1  UNL1       -0.4351
     12 C          62.6445   85.4317   11.2906 C.ar    1  UNL1        0.1576
     13 C          62.2268   85.2331   12.7175 C.ar    1  UNL1        0.0384
     14 C          62.3460   83.8793   13.3523 C.ar    1  UNL1        0.0070
     15 C          62.8828   82.7241   12.5603 C.ar    1  UNL1        0.0725
     16 C          63.3005   82.9228   11.1333 C.ar    1  UNL1        0.0183
     17 C          63.1814   84.2766   10.4985 C.ar    1  UNL1        0.0921
     18 CL         63.5991   84.4752    9.0715 Cl      1  UNL1       -0.0791
     19 C          63.0019   81.3703   13.1951 C.3     1  UNL1        0.4186
     20 F          63.1211   80.0165   13.8299 F       1  UNL1       -0.1659
     21 F          63.3274   82.0153   14.5096 F       1  UNL1       -0.1659
     22 F          62.6765   80.7253   11.8806 F       1  UNL1       -0.1659
     23 C          63.6927   90.6507   11.3450 C.3     1  UNL1        0.1789
     24 C          66.2220   94.9503   11.6485 C.3     1  UNL1        0.0758
     25 C          66.4437   94.0233   12.8068 C.3     1  UNL1        0.0390
     26 C          65.6258   92.7875   12.5745 C.3     1  UNL1        0.0949
     27 N          64.8987   92.9508   11.2727 N.am    1  UNL1       -0.2767
     28 C          63.9667   91.9525   10.6521 C.2     1  UNL1        0.2461
     29 O          63.3088   92.2562    9.3388 O.2     1  UNL1       -0.2730
     30 C          65.2672   94.2874   10.7004 C.3     1  UNL1        0.1091
     31 C          67.0639   96.8517   10.0909 C.3     1  UNL1        0.0859
     32 N          66.8457   96.3027   11.4697 N.3     1  UNL1       -0.2960
     33 H          66.2499   96.9690   11.9610 H       1  UNL1        0.1233
     34 C          64.0698   90.4741   12.7860 C.3     1  UNL1        0.1715
     35 O          63.2182   89.6285   13.6859 O.3     1  UNL1       -0.3467
     36 C          63.5737   89.4832   15.1359 C.3     1  UNL1        0.1687
     37 C          63.5370   88.1316   15.7853 C.ar    1  UNL1        0.0073
     38 C          64.2079   86.9638   15.1248 C.ar    1  UNL1       -0.0019
     39 C          64.1712   85.6121   15.7742 C.ar    1  UNL1       -0.0002
     40 C          63.4637   85.4283   17.0840 C.ar    1  UNL1       -0.0000
     41 C          62.7928   86.5961   17.7445 C.ar    1  UNL1       -0.0002
     42 C          62.8295   87.9478   17.0951 C.ar    1  UNL1       -0.0019
@<TRIPOS>BOND
     1    31    32    1
     2    24    32    1
     3    24    25    1
     4    25    26    1
     5    26    27    1
     6    27    28   am
     7    28    29    2
     8    28    23    1
     9    23    34    1
    10    34    35    1
    11    35    36    1
    12    36    37    1
    13    37    38   ar
    14    38    39   ar
    15    39    40   ar
    16    40    41   ar
    17    41    42   ar
    18    23     1    1
    19     1     2   am
    20     2     3    2
    21     2     5    1
    22     5     6   ar
    23     6     7   ar
    24     7     8   ar
    25     8     9   ar
    26     9    10   ar
    27    10    11    1
    28    11    12    1
    29    12    13   ar
    30    13    14   ar
    31    14    15   ar
    32    15    19    1
    33    19    20    1
    34    19    21    1
    35    19    22    1
    36    15    16   ar
    37    16    17   ar
    38    17    18    1
    39    27    30    1
    40    30    24    1
    41    42    37   ar
    42    10     5   ar
    43    17    12   ar
    44    32    33    1
    45     1     4    1
@<TRIPOS>MOLECULE
*****
 42 45 0 0 0
SMALL
GASTEIGER

@<TRIPOS>ATOM
      1 N          62.9806   89.5307   10.6796 N.am    1  UNL1       -0.2927
      2 C          61.5256   89.5781   10.3184 C.2     1  UNL1        0.2508
      3 O          60.6727   90.7187   10.7892 O.2     1  UNL1       -0.2700
      4 H          63.5404   88.7821   10.3705 H       1  UNL1        0.1502
      5 C          60.9233   88.4849    9.4863 C.ar    1  UNL1        0.1068
      6 C          59.8154   88.7981    8.5247 C.ar    1  UNL1        0.0108
      7 C          59.2132   87.7050    7.6926 C.ar    1  UNL1        0.0210
      8 C          59.7189   86.2987    7.8221 C.ar    1  UNL1        0.1021
      9 N          60.8267   85.9856    8.7837 N.ar    1  UNL1       -0.2097
     10 C          61.4290   87.0787    9.6158 C.ar    1  UNL1        0.2340
     11 O          62.5368   86.7656   10.5773 O.3     1  UNL1       -0.4351
     12 C          62.6358   85.3993   11.1884 C.ar    1  UNL1        0.1576
     13 C          62.1624   85.1698   12.5931 C.ar    1  UNL1        0.0384
     14 C          62.2614   83.8035   13.2042 C.ar    1  UNL1        0.0070
     15 C          62.8337   82.6666   12.4105 C.ar    1  UNL1        0.0725
     16 C          63.3071   82.8961   11.0057 C.ar    1  UNL1        0.0183
     17 C          63.2081   84.2624   10.3947 C.ar    1  UNL1        0.0921
     18 CL         63.6815   84.4919    8.9899 Cl      1  UNL1       -0.0791
     19 C          62.9327   81.3003   13.0215 C.3     1  UNL1        0.4186
     20 F          63.0317   79.9340   13.6325 F       1  UNL1       -0.1659
     21 F          64.4293   81.3824   12.9627 F       1  UNL1       -0.1659
     22 F          61.4361   81.2182   13.0804 F       1  UNL1       -0.1659
     23 C          63.5829   90.6238   11.5116 C.3     1  UNL1        0.1789
     24 C          63.6662   87.8402   15.6614 C.3     1  UNL1        0.0758
     25 C          64.0302   87.0934   14.4125 C.3     1  UNL1        0.0390
     26 C          63.9610   88.0531   13.2618 C.3     1  UNL1        0.0949
     27 N          63.5542   89.3930   13.7995 N.am    1  UNL1       -0.2767
     28 C          63.3631   90.6447   12.9953 C.2     1  UNL1        0.2461
     29 O          62.9523   91.9173   13.6748 O.2     1  UNL1       -0.2730
     30 C          63.3719   89.2614   15.2826 C.3     1  UNL1        0.1091
     31 C          62.6909   86.1162   17.3427 C.3     1  UNL1        0.0859
     32 N          63.6067   87.2665   17.0461 N.3     1  UNL1       -0.2960
     33 H          64.5510   86.9584   17.2780 H       1  UNL1        0.1233
     34 C          64.4048   91.6961   10.8601 C.3     1  UNL1        0.1715
     35 O          65.7596   92.0383   11.4057 O.3     1  UNL1       -0.3467
     36 C          65.8970   93.0895   12.4669 C.3     1  UNL1        0.1687
     37 C          66.7084   92.8112   13.6975 C.ar    1  UNL1        0.0073
     38 C          66.1219   93.0621   15.0551 C.ar    1  UNL1       -0.0019
     39 C          66.9333   92.7839   16.2857 C.ar    1  UNL1       -0.0002
     40 C          68.3311   92.2548   16.1586 C.ar    1  UNL1       -0.0000
     41 C          68.9176   92.0039   14.8010 C.ar    1  UNL1       -0.0002
     42 C          68.1062   92.2822   13.5704 C.ar    1  UNL1       -0.0019
@<TRIPOS>BOND
     1    31    32    1
     2    24    32    1
     3    24    25    1
     4    25    26    1
     5    26    27    1
     6    27    28   am
     7    28    29    2
     8    28    23    1
     9    23    34    1
    10    34    35    1
    11    35    36    1
    12    36    37    1
    13    37    38   ar
    14    38    39   ar
    15    39    40   ar
    16    40    41   ar
    17    41    42   ar
    18    23     1    1
    19     1     2   am
    20     2     3    2
    21     2     5    1
    22     5     6   ar
    23     6     7   ar
    24     7     8   ar
    25     8     9   ar
    26     9    10   ar
    27    10    11    1
    28    11    12    1
    29    12    13   ar
    30    13    14   ar
    31    14    15   ar
    32    15    19    1
    33    19    20    1
    34    19    21    1
    35    19    22    1
    36    15    16   ar
    37    16    17   ar
    38    17    18    1
    39    27    30    1
    40    30    24    1
    41    42    37   ar
    42    10     5   ar
    43    17    12   ar
    44    32    33    1
    45     1     4    1
