@<TRIPOS>MOLECULE
*****
 35 38 0 0 0
SMALL
GASTEIGER

@<TRIPOS>ATOM
      1 C          64.7416   90.1286   14.6977 C.ar    1  UNL1        0.0635
      2 C          64.6040   88.7655   14.0869 C.ar    1  UNL1        0.0171
      3 C          63.7671   87.7210   14.7643 C.ar    1  UNL1        0.0190
      4 C          63.0679   88.0397   16.0525 C.ar    1  UNL1        0.0023
      5 C          63.2054   89.4028   16.6632 C.ar    1  UNL1        0.0116
      6 C          64.0423   90.4472   15.9859 C.ar    1  UNL1        0.0821
      7 C          63.6296   86.3579   14.1536 C.ar    1  UNL1        0.0829
      8 C          63.9714   85.0563   14.8161 C.ar    1  UNL1        0.0246
      9 C          63.6792   83.9511   13.8450 C.ar    1  UNL1        0.0933
     10 C          63.1567   84.5696   12.5822 C.ar    1  UNL1        0.1178
     11 C          62.7050   83.9705   11.2834 C.ar    1  UNL1        0.1450
     12 N          62.7356   82.4830   11.0927 N.pl3   1  UNL1       -0.3414
     13 N          62.2226   84.8590   10.1753 N.ar    1  UNL1       -0.2065
     14 C          62.1919   86.3465   10.3660 C.ar    1  UNL1        0.2211
     15 N          62.6437   86.9456   11.6649 N.ar    1  UNL1       -0.1422
     16 N          63.1261   86.0571   12.7730 N.ar    1  UNL1       -0.2255
     17 H          63.0522   81.8999   11.8200 H       1  UNL1        0.1438
     18 H          62.4391   82.0898   10.2402 H       1  UNL1        0.1438
     19 C          63.8750   82.4847   14.0930 C.3     1  UNL1        0.4201
     20 F          64.0707   81.0184   14.3411 F       1  UNL1       -0.1658
     21 F          62.7444   82.5005   15.0787 F       1  UNL1       -0.1658
     22 F          65.0055   82.4690   13.1074 F       1  UNL1       -0.1658
     23 C          69.0341   93.0526   14.5440 C.3     1  UNL1        0.0338
     24 C          67.7246   92.6349   13.9434 C.3     1  UNL1        0.1341
     25 O          67.2520   93.2617   12.6651 O.3     1  UNL1       -0.3507
     26 C          65.9425   92.8441   12.0645 C.3     1  UNL1        0.1612
     27 C          66.3769   93.8667   11.0568 C.3     1  UNL1        0.0391
     28 C          64.7839   92.7816   11.1138 C.3     1  UNL1        0.0391
     29 C          65.1057   91.7996   12.7420 C.2     1  UNL1        0.2537
     30 O          63.7962   91.3820   12.1414 O.2     1  UNL1       -0.2720
     31 N          65.5784   91.1729   14.0202 N.am    1  UNL1       -0.2554
     32 C          66.8879   91.5906   14.6209 C.3     1  UNL1        0.1070
     33 C          67.3606   90.9638   15.8991 C.3     1  UNL1        0.0245
     34 C          64.1798   91.8103   16.5966 C.1     1  UNL1        0.1017
     35 N          64.3173   93.1733   17.2075 N.1     1  UNL1       -0.1908
@<TRIPOS>BOND
     1    24    23    1
     2    24    25    1
     3    25    26    1
     4    26    27    1
     5    26    28    1
     6    26    29    1
     7    29    30    2
     8    29    31   am
     9    31     1    1
    10     1     2   ar
    11     2     3   ar
    12     3     7    1
    13     7     8   ar
    14     8     9   ar
    15     9    19    1
    16    19    20    1
    17    19    21    1
    18    19    22    1
    19     9    10   ar
    20    10    11   ar
    21    11    12    1
    22    11    13   ar
    23    13    14   ar
    24    14    15   ar
    25    15    16   ar
    26     3     4   ar
    27     4     5   ar
    28     5     6   ar
    29     6    34    1
    30    34    35    3
    31    31    32    1
    32    32    33    1
    33    32    24    1
    34     6     1   ar
    35    16     7   ar
    36    16    10   ar
    37    12    17    1
    38    12    18    1
@<TRIPOS>MOLECULE
*****
 35 38 0 0 0
SMALL
GASTEIGER

@<TRIPOS>ATOM
      1 C          63.8874   88.8760   14.2273 C.ar    1  UNL1        0.0635
      2 C          63.8118   87.4895   13.6601 C.ar    1  UNL1        0.0171
      3 C          63.4583   86.3338   14.5488 C.ar    1  UNL1        0.0190
      4 C          63.1803   86.5649   16.0045 C.ar    1  UNL1        0.0023
      5 C          63.2559   87.9514   16.5717 C.ar    1  UNL1        0.0116
      6 C          63.6095   89.1070   15.6831 C.ar    1  UNL1        0.0821
      7 C          63.3827   84.9473   13.9815 C.ar    1  UNL1        0.0829
      8 C          63.3603   83.6718   14.7707 C.ar    1  UNL1        0.0246
      9 C          63.2800   82.5291   13.8024 C.ar    1  UNL1        0.0933
     10 C          63.2527   83.0982   12.4148 C.ar    1  UNL1        0.1178
     11 C          63.1783   82.4486   11.0648 C.ar    1  UNL1        0.1450
     12 N          63.1149   80.9541   10.9541 N.pl3   1  UNL1       -0.3414
     13 N          63.1674   83.2936    9.8256 N.ar    1  UNL1       -0.2065
     14 C          63.2309   84.7882    9.9363 C.ar    1  UNL1        0.2211
     15 N          63.3053   85.4377   11.2863 N.ar    1  UNL1       -0.1422
     16 N          63.3162   84.5927   12.5255 N.ar    1  UNL1       -0.2255
     17 H          63.1220   80.3995   11.7675 H       1  UNL1        0.1438
     18 H          63.0660   80.5277   10.0681 H       1  UNL1        0.1438
     19 C          63.2348   81.0728   14.1590 C.3     1  UNL1        0.4201
     20 F          63.1896   79.6165   14.5157 F       1  UNL1       -0.1658
     21 F          61.8071   81.2235   14.5938 F       1  UNL1       -0.1658
     22 F          64.6624   80.9220   13.7243 F       1  UNL1       -0.1658
     23 C          63.0308   91.6811    9.9381 C.3     1  UNL1        0.0338
     24 C          63.8127   91.4341   11.1941 C.3     1  UNL1        0.1341
     25 O          64.9483   92.3427   11.5615 O.3     1  UNL1       -0.3507
     26 C          65.7302   92.0958   12.8175 C.3     1  UNL1        0.1612
     27 C          66.4412   93.3122   12.3031 C.3     1  UNL1        0.0391
     28 C          66.7591   92.2713   13.8948 C.3     1  UNL1        0.0391
     29 C          65.3766   90.9401   13.7061 C.2     1  UNL1        0.2537
     30 O          66.1585   90.6931   14.9621 O.2     1  UNL1       -0.2720
     31 N          64.2410   90.0316   13.3387 N.am    1  UNL1       -0.2554
     32 C          63.4591   90.2785   12.0827 C.3     1  UNL1        0.1070
     33 C          62.3235   89.3700   11.7153 C.3     1  UNL1        0.0245
     34 C          63.6851   90.4936   16.2504 C.1     1  UNL1        0.1017
     35 N          63.7608   91.8801   16.8176 N.1     1  UNL1       -0.1908
@<TRIPOS>BOND
     1    24    23    1
     2    24    25    1
     3    25    26    1
     4    26    27    1
     5    26    28    1
     6    26    29    1
     7    29    30    2
     8    29    31   am
     9    31     1    1
    10     1     2   ar
    11     2     3   ar
    12     3     7    1
    13     7     8   ar
    14     8     9   ar
    15     9    19    1
    16    19    20    1
    17    19    21    1
    18    19    22    1
    19     9    10   ar
    20    10    11   ar
    21    11    12    1
    22    11    13   ar
    23    13    14   ar
    24    14    15   ar
    25    15    16   ar
    26     3     4   ar
    27     4     5   ar
    28     5     6   ar
    29     6    34    1
    30    34    35    3
    31    31    32    1
    32    32    33    1
    33    32    24    1
    34     6     1   ar
    35    16     7   ar
    36    16    10   ar
    37    12    17    1
    38    12    18    1
@<TRIPOS>MOLECULE
*****
 35 38 0 0 0
SMALL
GASTEIGER

@<TRIPOS>ATOM
      1 C          62.3368   88.9196   12.0104 C.ar    1  UNL1        0.0635
      2 C          62.8263   87.5073   12.1370 C.ar    1  UNL1        0.0171
      3 C          61.9650   86.3705   11.6722 C.ar    1  UNL1        0.0190
      4 C          60.6143   86.6460   11.0809 C.ar    1  UNL1        0.0023
      5 C          60.1248   88.0583   10.9543 C.ar    1  UNL1        0.0116
      6 C          60.9860   89.1950   11.4191 C.ar    1  UNL1        0.0821
      7 C          62.4545   84.9583   11.7987 C.ar    1  UNL1        0.0829
      8 C          62.6322   83.9825   10.6734 C.ar    1  UNL1        0.0246
      9 C          63.1397   82.6951   11.2521 C.ar    1  UNL1        0.0933
     10 C          63.2757   82.8751   12.7350 C.ar    1  UNL1        0.1178
     11 C          63.7305   81.9461   13.8213 C.ar    1  UNL1        0.1450
     12 N          64.1540   80.5474   13.4835 N.pl3   1  UNL1       -0.3414
     13 N          63.7617   82.4159   15.2455 N.ar    1  UNL1       -0.2065
     14 C          63.3382   83.8146   15.5834 C.ar    1  UNL1        0.2211
     15 N          62.8834   84.7436   14.4971 N.ar    1  UNL1       -0.1422
     16 N          62.8522   84.2739   13.0729 N.ar    1  UNL1       -0.2255
     17 H          64.1335   80.2391   12.5487 H       1  UNL1        0.1438
     18 H          64.4524   79.9377   14.1965 H       1  UNL1        0.1438
     19 C          63.4558   81.4467   10.4829 C.3     1  UNL1        0.4201
     20 F          63.7720   80.1984    9.7136 F       1  UNL1       -0.1658
     21 F          64.5995   82.1491    9.8130 F       1  UNL1       -0.1658
     22 F          62.3122   80.7444   11.1527 F       1  UNL1       -0.1658
     23 C          65.1952   93.1266   10.9475 C.3     1  UNL1        0.0338
     24 C          64.6273   92.1598   11.9438 C.3     1  UNL1        0.1341
     25 O          64.9206   92.3297   13.4050 O.3     1  UNL1       -0.3507
     26 C          64.3527   91.3629   14.4013 C.3     1  UNL1        0.1612
     27 C          65.1077   92.2736   15.3234 C.3     1  UNL1        0.0391
     28 C          64.0470   90.7124   15.7179 C.3     1  UNL1        0.0391
     29 C          63.4913   90.2261   13.9364 C.2     1  UNL1        0.2537
     30 O          62.9234   89.2593   14.9328 O.2     1  UNL1       -0.2720
     31 N          63.1980   90.0563   12.4752 N.am    1  UNL1       -0.2554
     32 C          63.7660   91.0231   11.4789 C.3     1  UNL1        0.1070
     33 C          63.4727   90.8532   10.0177 C.3     1  UNL1        0.0245
     34 C          60.4966   90.6073   11.2925 C.1     1  UNL1        0.1017
     35 N          60.0071   92.0194   11.1661 N.1     1  UNL1       -0.1908
@<TRIPOS>BOND
     1    24    23    1
     2    24    25    1
     3    25    26    1
     4    26    27    1
     5    26    28    1
     6    26    29    1
     7    29    30    2
     8    29    31   am
     9    31     1    1
    10     1     2   ar
    11     2     3   ar
    12     3     7    1
    13     7     8   ar
    14     8     9   ar
    15     9    19    1
    16    19    20    1
    17    19    21    1
    18    19    22    1
    19     9    10   ar
    20    10    11   ar
    21    11    12    1
    22    11    13   ar
    23    13    14   ar
    24    14    15   ar
    25    15    16   ar
    26     3     4   ar
    27     4     5   ar
    28     5     6   ar
    29     6    34    1
    30    34    35    3
    31    31    32    1
    32    32    33    1
    33    32    24    1
    34     6     1   ar
    35    16     7   ar
    36    16    10   ar
    37    12    17    1
    38    12    18    1
@<TRIPOS>MOLECULE
*****
 35 38 0 0 0
SMALL
GASTEIGER

@<TRIPOS>ATOM
      1 C          62.0623   87.8494   10.8226 C.ar    1  UNL1        0.0635
      2 C          63.0725   88.6586   11.5806 C.ar    1  UNL1        0.0171
      3 C          62.7572   90.0704   11.9778 C.ar    1  UNL1        0.0190
      4 C          61.4319   90.6728   11.6168 C.ar    1  UNL1        0.0023
      5 C          60.4217   89.8635   10.8588 C.ar    1  UNL1        0.0116
      6 C          60.7369   88.4519   10.4616 C.ar    1  UNL1        0.0821
      7 C          63.7674   90.8797   12.7358 C.ar    1  UNL1        0.0829
      8 C          64.0652   90.7690   14.2018 C.ar    1  UNL1        0.0246
      9 C          65.1390   91.7626   14.5330 C.ar    1  UNL1        0.0933
     10 C          65.5049   92.4873   13.2717 C.ar    1  UNL1        0.1178
     11 C          66.5004   93.5736   12.9910 C.ar    1  UNL1        0.1450
     12 N          67.3481   94.1193   14.1017 N.pl3   1  UNL1       -0.3414
     13 N          66.6483   94.1143   11.5997 N.ar    1  UNL1       -0.2065
     14 C          65.8006   93.5686   10.4890 C.ar    1  UNL1        0.2211
     15 N          64.8051   92.4823   10.7696 N.ar    1  UNL1       -0.1422
     16 N          64.6572   91.9416   12.1610 N.ar    1  UNL1       -0.2255
     17 H          67.2511   93.7645   15.0149 H       1  UNL1        0.1438
     18 H          68.0015   94.8323   13.9175 H       1  UNL1        0.1438
     19 C          65.7412   91.9913   15.8876 C.3     1  UNL1        0.4201
     20 F          66.3434   92.2201   17.2423 F       1  UNL1       -0.1658
     21 F          64.4349   92.5444   16.3750 F       1  UNL1       -0.1658
     22 F          67.0475   91.4382   15.4003 F       1  UNL1       -0.1658
     23 C          62.7783   84.2672    7.1274 C.3     1  UNL1        0.0338
     24 C          62.7356   84.6466    8.5779 C.3     1  UNL1        0.1341
     25 O          63.0083   83.6142    9.6315 O.3     1  UNL1       -0.3507
     26 C          62.9656   83.9936   11.0821 C.3     1  UNL1        0.1612
     27 C          63.3073   82.5382   11.2035 C.3     1  UNL1        0.0391
     28 C          63.0416   83.8675   12.5749 C.3     1  UNL1        0.0391
     29 C          62.6503   85.4054   11.4791 C.2     1  UNL1        0.2537
     30 O          62.6076   85.7849   12.9297 O.2     1  UNL1       -0.2720
     31 N          62.3776   86.4377   10.4255 N.am    1  UNL1       -0.2554
     32 C          62.4203   86.0583    8.9749 C.3     1  UNL1        0.1070
     33 C          62.1476   87.0906    7.9213 C.3     1  UNL1        0.0245
     34 C          59.7267   87.6426    9.7036 C.1     1  UNL1        0.1017
     35 N          58.7165   86.8334    8.9456 N.1     1  UNL1       -0.1908
@<TRIPOS>BOND
     1    24    23    1
     2    24    25    1
     3    25    26    1
     4    26    27    1
     5    26    28    1
     6    26    29    1
     7    29    30    2
     8    29    31   am
     9    31     1    1
    10     1     2   ar
    11     2     3   ar
    12     3     7    1
    13     7     8   ar
    14     8     9   ar
    15     9    19    1
    16    19    20    1
    17    19    21    1
    18    19    22    1
    19     9    10   ar
    20    10    11   ar
    21    11    12    1
    22    11    13   ar
    23    13    14   ar
    24    14    15   ar
    25    15    16   ar
    26     3     4   ar
    27     4     5   ar
    28     5     6   ar
    29     6    34    1
    30    34    35    3
    31    31    32    1
    32    32    33    1
    33    32    24    1
    34     6     1   ar
    35    16     7   ar
    36    16    10   ar
    37    12    17    1
    38    12    18    1
@<TRIPOS>MOLECULE
*****
 35 38 0 0 0
SMALL
GASTEIGER

@<TRIPOS>ATOM
      1 C          62.3874   88.9578   12.0375 C.ar    1  UNL1        0.0635
      2 C          62.8730   87.5443   12.1657 C.ar    1  UNL1        0.0171
      3 C          62.0092   86.4095   11.7006 C.ar    1  UNL1        0.0190
      4 C          60.6601   86.6881   11.1074 C.ar    1  UNL1        0.0023
      5 C          60.1745   88.1016   10.9793 C.ar    1  UNL1        0.0116
      6 C          61.0381   89.2364   11.4443 C.ar    1  UNL1        0.0821
      7 C          62.4948   84.9960   11.8287 C.ar    1  UNL1        0.0829
      8 C          62.6494   84.0118   10.7074 C.ar    1  UNL1        0.0246
      9 C          63.1612   82.7262   11.2864 C.ar    1  UNL1        0.0933
     10 C          63.3229   82.9159   12.7655 C.ar    1  UNL1        0.1178
     11 C          63.7920   81.9924   13.8505 C.ar    1  UNL1        0.1450
     12 N          64.2039   80.5895   13.5153 N.pl3   1  UNL1       -0.3414
     13 N          63.8492   82.4718   15.2706 N.ar    1  UNL1       -0.2065
     14 C          63.4374   83.8747   15.6058 C.ar    1  UNL1        0.2211
     15 N          62.9683   84.7981   14.5209 N.ar    1  UNL1       -0.1422
     16 N          62.9111   84.3187   13.1007 N.ar    1  UNL1       -0.2255
     17 H          64.1663   80.2749   12.5832 H       1  UNL1        0.1438
     18 H          64.5117   79.9834   14.2274 H       1  UNL1        0.1438
     19 C          63.4590   81.4712   10.5207 C.3     1  UNL1        0.4201
     20 F          63.7569   80.2162    9.7549 F       1  UNL1       -0.1658
     21 F          64.5931   82.1644    9.8255 F       1  UNL1       -0.1658
     22 F          62.3250   80.7780   11.2158 F       1  UNL1       -0.1658
     23 C          64.6018   91.6380   15.8992 C.3     1  UNL1        0.0338
     24 C          64.3583   91.4327   14.4334 C.3     1  UNL1        0.1341
     25 O          64.9786   92.3621   13.4327 O.3     1  UNL1       -0.3507
     26 C          64.7351   92.1567   11.9669 C.3     1  UNL1        0.1612
     27 C          65.6211   93.3660   11.9168 C.3     1  UNL1        0.0391
     28 C          64.7993   92.3714   10.4837 C.3     1  UNL1        0.0391
     29 C          63.8713   91.0219   11.5018 C.2     1  UNL1        0.2537
     30 O          63.6278   90.8165   10.0361 O.2     1  UNL1       -0.2720
     31 N          63.2511   90.0925   12.5026 N.am    1  UNL1       -0.2554
     32 C          63.4945   90.2979   13.9684 C.3     1  UNL1        0.1070
     33 C          62.8743   89.3685   14.9692 C.3     1  UNL1        0.0245
     34 C          60.5525   90.6498   11.3162 C.1     1  UNL1        0.1017
     35 N          60.0670   92.0632   11.1881 N.1     1  UNL1       -0.1908
@<TRIPOS>BOND
     1    24    23    1
     2    24    25    1
     3    25    26    1
     4    26    27    1
     5    26    28    1
     6    26    29    1
     7    29    30    2
     8    29    31   am
     9    31     1    1
    10     1     2   ar
    11     2     3   ar
    12     3     7    1
    13     7     8   ar
    14     8     9   ar
    15     9    19    1
    16    19    20    1
    17    19    21    1
    18    19    22    1
    19     9    10   ar
    20    10    11   ar
    21    11    12    1
    22    11    13   ar
    23    13    14   ar
    24    14    15   ar
    25    15    16   ar
    26     3     4   ar
    27     4     5   ar
    28     5     6   ar
    29     6    34    1
    30    34    35    3
    31    31    32    1
    32    32    33    1
    33    32    24    1
    34     6     1   ar
    35    16     7   ar
    36    16    10   ar
    37    12    17    1
    38    12    18    1
@<TRIPOS>MOLECULE
*****
 35 38 0 0 0
SMALL
GASTEIGER

@<TRIPOS>ATOM
      1 C          64.7007   90.2963   14.4723 C.ar    1  UNL1        0.0635
      2 C          64.5281   89.0226   13.6990 C.ar    1  UNL1        0.0171
      3 C          63.6823   87.9159   14.2557 C.ar    1  UNL1        0.0190
      4 C          63.0091   88.0830   15.5856 C.ar    1  UNL1        0.0023
      5 C          63.1816   89.3567   16.3589 C.ar    1  UNL1        0.0116
      6 C          64.0274   90.4633   15.8022 C.ar    1  UNL1        0.0821
      7 C          63.5097   86.6422   13.4825 C.ar    1  UNL1        0.0829
      8 C          63.2254   86.5341   12.0136 C.ar    1  UNL1        0.0246
      9 C          63.1312   85.0781   11.6657 C.ar    1  UNL1        0.0933
     10 C          63.3573   84.2863   12.9195 C.ar    1  UNL1        0.1178
     11 C          63.3804   82.8099   13.1838 C.ar    1  UNL1        0.1450
     12 N          63.1464   81.8432   12.0609 N.pl3   1  UNL1       -0.3414
     13 N          63.6375   82.3003   14.5709 N.ar    1  UNL1       -0.2065
     14 C          63.8714   83.2670   15.6937 C.ar    1  UNL1        0.2211
     15 N          63.8483   84.7433   15.4294 N.ar    1  UNL1       -0.1422
     16 N          63.5913   85.2530   14.0423 N.ar    1  UNL1       -0.2255
     17 H          62.9777   82.1778   11.1505 H       1  UNL1        0.1438
     18 H          63.1616   80.8743   12.2344 H       1  UNL1        0.1438
     19 C          62.8587   84.5130   10.3032 C.3     1  UNL1        0.4201
     20 F          62.5861   83.9479    8.9407 F       1  UNL1       -0.1658
     21 F          61.4617   85.0567   10.3571 F       1  UNL1       -0.1658
     22 F          64.2555   83.9692   10.2493 F       1  UNL1       -0.1658
     23 C          68.8823   93.3636   14.7974 C.3     1  UNL1        0.0338
     24 C          67.6372   92.9365   14.0780 C.3     1  UNL1        0.1341
     25 O          67.2380   93.6162   12.8018 O.3     1  UNL1       -0.3507
     26 C          65.9930   93.1891   12.0824 C.3     1  UNL1        0.1612
     27 C          66.4630   94.2789   11.1651 C.3     1  UNL1        0.0391
     28 C          64.9112   93.1406   11.0444 C.3     1  UNL1        0.0391
     29 C          65.1472   92.0825   12.6393 C.2     1  UNL1        0.2537
     30 O          63.9021   91.6554   11.9199 O.2     1  UNL1       -0.2720
     31 N          65.5464   91.4029   13.9155 N.am    1  UNL1       -0.2554
     32 C          66.7915   91.8299   14.6349 C.3     1  UNL1        0.1070
     33 C          67.1908   91.1503   15.9111 C.3     1  UNL1        0.0245
     34 C          64.1999   91.7370   16.5755 C.1     1  UNL1        0.1017
     35 N          64.3724   93.0107   17.3487 N.1     1  UNL1       -0.1908
@<TRIPOS>BOND
     1    24    23    1
     2    24    25    1
     3    25    26    1
     4    26    27    1
     5    26    28    1
     6    26    29    1
     7    29    30    2
     8    29    31   am
     9    31     1    1
    10     1     2   ar
    11     2     3   ar
    12     3     7    1
    13     7     8   ar
    14     8     9   ar
    15     9    19    1
    16    19    20    1
    17    19    21    1
    18    19    22    1
    19     9    10   ar
    20    10    11   ar
    21    11    12    1
    22    11    13   ar
    23    13    14   ar
    24    14    15   ar
    25    15    16   ar
    26     3     4   ar
    27     4     5   ar
    28     5     6   ar
    29     6    34    1
    30    34    35    3
    31    31    32    1
    32    32    33    1
    33    32    24    1
    34     6     1   ar
    35    16     7   ar
    36    16    10   ar
    37    12    17    1
    38    12    18    1
@<TRIPOS>MOLECULE
*****
 35 38 0 0 0
SMALL
GASTEIGER

@<TRIPOS>ATOM
      1 C          62.7198   86.6982   11.6031 C.ar    1  UNL1        0.0635
      2 C          63.2824   88.0533   11.9150 C.ar    1  UNL1        0.0171
      3 C          64.0024   88.2865   13.2102 C.ar    1  UNL1        0.0190
      4 C          64.1598   87.1646   14.1932 C.ar    1  UNL1        0.0023
      5 C          63.5973   85.8095   13.8813 C.ar    1  UNL1        0.0116
      6 C          62.8773   85.5763   12.5862 C.ar    1  UNL1        0.0821
      7 C          64.5649   89.6416   13.5221 C.ar    1  UNL1        0.0829
      8 C          65.1199   90.0829   14.8439 C.ar    1  UNL1        0.0246
      9 C          65.5692   91.5074   14.7057 C.ar    1  UNL1        0.0933
     10 C          65.2918   91.9464   13.2985 C.ar    1  UNL1        0.1178
     11 C          65.5242   93.2472   12.5887 C.ar    1  UNL1        0.1450
     12 N          66.1449   94.4003   13.3202 N.pl3   1  UNL1       -0.3414
     13 N          65.1359   93.3949   11.1474 N.ar    1  UNL1       -0.2065
     14 C          64.5152   92.2418   10.4159 C.ar    1  UNL1        0.2211
     15 N          64.2828   90.9410   11.1257 N.ar    1  UNL1       -0.1422
     16 N          64.6711   90.7933   12.5670 N.ar    1  UNL1       -0.2255
     17 H          66.3997   94.3034   14.2662 H       1  UNL1        0.1438
     18 H          66.2974   95.2541   12.8543 H       1  UNL1        0.1438
     19 C          66.1873   92.3456   15.7852 C.3     1  UNL1        0.4201
     20 F          66.8053   93.1839   16.8647 F       1  UNL1       -0.1658
     21 F          64.8441   92.4994   16.4349 F       1  UNL1       -0.1658
     22 F          67.5304   92.1919   15.1355 F       1  UNL1       -0.1658
     23 C          58.6611   87.5969    8.4856 C.3     1  UNL1        0.0338
     24 C          59.9706   86.9144    8.7493 C.3     1  UNL1        0.1341
     25 O          60.5601   85.9988    7.7177 O.3     1  UNL1       -0.3507
     26 C          61.8695   85.3163    7.9813 C.3     1  UNL1        0.1612
     27 C          61.5681   84.7816    6.6127 C.3     1  UNL1        0.0391
     28 C          63.0743   84.4481    7.7696 C.3     1  UNL1        0.0391
     29 C          62.5895   85.5495    9.2765 C.2     1  UNL1        0.2537
     30 O          63.8989   84.8670    9.5401 O.2     1  UNL1       -0.2720
     31 N          61.9999   86.4651   10.3080 N.am    1  UNL1       -0.2554
     32 C          60.6904   87.1476   10.0444 C.3     1  UNL1        0.1070
     33 C          60.1009   88.0633   11.0759 C.3     1  UNL1        0.0245
     34 C          62.3148   84.2212   12.2743 C.1     1  UNL1        0.1017
     35 N          61.7523   82.8662   11.9624 N.1     1  UNL1       -0.1908
@<TRIPOS>BOND
     1    24    23    1
     2    24    25    1
     3    25    26    1
     4    26    27    1
     5    26    28    1
     6    26    29    1
     7    29    30    2
     8    29    31   am
     9    31     1    1
    10     1     2   ar
    11     2     3   ar
    12     3     7    1
    13     7     8   ar
    14     8     9   ar
    15     9    19    1
    16    19    20    1
    17    19    21    1
    18    19    22    1
    19     9    10   ar
    20    10    11   ar
    21    11    12    1
    22    11    13   ar
    23    13    14   ar
    24    14    15   ar
    25    15    16   ar
    26     3     4   ar
    27     4     5   ar
    28     5     6   ar
    29     6    34    1
    30    34    35    3
    31    31    32    1
    32    32    33    1
    33    32    24    1
    34     6     1   ar
    35    16     7   ar
    36    16    10   ar
    37    12    17    1
    38    12    18    1
@<TRIPOS>MOLECULE
*****
 35 38 0 0 0
SMALL
GASTEIGER

@<TRIPOS>ATOM
      1 C          62.5688   87.3422   11.3801 C.ar    1  UNL1        0.0635
      2 C          63.4424   88.2876   12.1503 C.ar    1  UNL1        0.0171
      3 C          63.2659   89.7689   11.9930 C.ar    1  UNL1        0.0190
      4 C          62.2158   90.3047   11.0656 C.ar    1  UNL1        0.0023
      5 C          61.3423   89.3594   10.2954 C.ar    1  UNL1        0.0116
      6 C          61.5188   87.8781   10.4526 C.ar    1  UNL1        0.0821
      7 C          64.1394   90.7143   12.7632 C.ar    1  UNL1        0.0829
      8 C          64.4524   90.6308   14.2278 C.ar    1  UNL1        0.0246
      9 C          65.3598   91.7740   14.5737 C.ar    1  UNL1        0.0933
     10 C          65.6077   92.5640   13.3229 C.ar    1  UNL1        0.1178
     11 C          66.4227   93.7951   13.0583 C.ar    1  UNL1        0.1450
     12 N          67.1769   94.4501   14.1773 N.pl3   1  UNL1       -0.3414
     13 N          66.4836   94.3712   11.6748 N.ar    1  UNL1       -0.2065
     14 C          65.7293   93.7162   10.5558 C.ar    1  UNL1        0.2211
     15 N          64.9143   92.4851   10.8203 N.ar    1  UNL1       -0.1422
     16 N          64.8535   91.9090   12.2039 N.ar    1  UNL1       -0.2255
     17 H          67.1370   94.0720   15.0854 H       1  UNL1        0.1438
     18 H          67.7119   95.2581   14.0037 H       1  UNL1        0.1438
     19 C          65.9208   92.0746   15.9320 C.3     1  UNL1        0.4201
     20 F          66.4818   92.3751   17.2904 F       1  UNL1       -0.1658
     21 F          64.5717   92.5494   16.3842 F       1  UNL1       -0.1658
     22 F          67.2698   91.5998   15.4799 F       1  UNL1       -0.1658
     23 C          62.5663   83.1042   14.3865 C.3     1  UNL1        0.0338
     24 C          62.7441   83.7420   13.0406 C.3     1  UNL1        0.1341
     25 O          63.0986   82.8985   11.8519 O.3     1  UNL1       -0.3507
     26 C          63.2764   83.5363   10.5060 C.3     1  UNL1        0.1612
     27 C          63.5475   82.1038   10.1532 C.3     1  UNL1        0.0391
     28 C          63.5484   83.6765    9.0375 C.3     1  UNL1        0.0391
     29 C          63.0998   85.0176   10.3487 C.2     1  UNL1        0.2537
     30 O          63.2777   85.6554    9.0028 O.2     1  UNL1       -0.2720
     31 N          62.7454   85.8610   11.5374 N.am    1  UNL1       -0.2554
     32 C          62.5675   85.2232   12.8833 C.3     1  UNL1        0.1070
     33 C          62.2131   86.0666   14.0720 C.3     1  UNL1        0.0245
     34 C          60.6452   86.9328    9.6824 C.1     1  UNL1        0.1017
     35 N          59.7717   85.9873    8.9123 N.1     1  UNL1       -0.1908
@<TRIPOS>BOND
     1    24    23    1
     2    24    25    1
     3    25    26    1
     4    26    27    1
     5    26    28    1
     6    26    29    1
     7    29    30    2
     8    29    31   am
     9    31     1    1
    10     1     2   ar
    11     2     3   ar
    12     3     7    1
    13     7     8   ar
    14     8     9   ar
    15     9    19    1
    16    19    20    1
    17    19    21    1
    18    19    22    1
    19     9    10   ar
    20    10    11   ar
    21    11    12    1
    22    11    13   ar
    23    13    14   ar
    24    14    15   ar
    25    15    16   ar
    26     3     4   ar
    27     4     5   ar
    28     5     6   ar
    29     6    34    1
    30    34    35    3
    31    31    32    1
    32    32    33    1
    33    32    24    1
    34     6     1   ar
    35    16     7   ar
    36    16    10   ar
    37    12    17    1
    38    12    18    1
@<TRIPOS>MOLECULE
*****
 35 38 0 0 0
SMALL
GASTEIGER

@<TRIPOS>ATOM
      1 C          61.9546   88.0318   10.2128 C.ar    1  UNL1        0.0635
      2 C          63.0118   88.9579   10.7371 C.ar    1  UNL1        0.0171
      3 C          62.6782   90.3925   11.0214 C.ar    1  UNL1        0.0190
      4 C          61.2876   90.9009   10.7815 C.ar    1  UNL1        0.0023
      5 C          60.2305   89.9748   10.2573 C.ar    1  UNL1        0.0116
      6 C          60.5640   88.5402    9.9729 C.ar    1  UNL1        0.0821
      7 C          63.7353   91.3186   11.5457 C.ar    1  UNL1        0.0829
      8 C          64.5702   92.2575   10.7263 C.ar    1  UNL1        0.0246
      9 C          65.4940   92.9875   11.6556 C.ar    1  UNL1        0.0933
     10 C          65.2301   92.4998   13.0494 C.ar    1  UNL1        0.1178
     11 C          65.8391   92.8616   14.3715 C.ar    1  UNL1        0.1450
     12 N          66.9261   93.8931   14.4395 N.pl3   1  UNL1       -0.3414
     13 N          65.3612   92.1919   15.6257 N.ar    1  UNL1       -0.2065
     14 C          64.2743   91.1604   15.5578 C.ar    1  UNL1        0.2211
     15 N          63.6653   90.7986   14.2356 N.ar    1  UNL1       -0.1422
     16 N          64.1432   91.4683   12.9814 N.ar    1  UNL1       -0.2255
     17 H          67.2397   94.3326   13.6162 H       1  UNL1        0.1438
     18 H          67.3258   94.1305   15.3073 H       1  UNL1        0.1438
     19 C          66.5044   94.0235   11.2606 C.3     1  UNL1        0.4201
     20 F          67.5147   95.0595   10.8656 F       1  UNL1       -0.1658
     21 F          65.6356   95.0953   11.8493 F       1  UNL1       -0.1658
     22 F          67.3731   92.9518   10.6720 F       1  UNL1       -0.1658
     23 C          62.4125   84.1000    6.8467 C.3     1  UNL1        0.0338
     24 C          62.5172   84.6314    8.2455 C.3     1  UNL1        0.1341
     25 O          62.9555   83.7282    9.3600 O.3     1  UNL1       -0.3507
     26 C          63.0601   84.2596   10.7588 C.3     1  UNL1        0.1612
     27 C          63.4809   82.8382   10.9880 C.3     1  UNL1        0.0391
     28 C          63.3109   84.2973   12.2372 C.3     1  UNL1        0.0391
     29 C          62.7265   85.6942   11.0431 C.2     1  UNL1        0.2537
     30 O          62.8312   86.2256   12.4419 O.2     1  UNL1       -0.2720
     31 N          62.2882   86.5973    9.9285 N.am    1  UNL1       -0.2554
     32 C          62.1836   86.0659    8.5297 C.3     1  UNL1        0.1070
     33 C          61.7453   86.9691    7.4151 C.3     1  UNL1        0.0245
     34 C          59.5068   87.6142    9.4487 C.1     1  UNL1        0.1017
     35 N          58.4498   86.6880    8.9244 N.1     1  UNL1       -0.1908
@<TRIPOS>BOND
     1    24    23    1
     2    24    25    1
     3    25    26    1
     4    26    27    1
     5    26    28    1
     6    26    29    1
     7    29    30    2
     8    29    31   am
     9    31     1    1
    10     1     2   ar
    11     2     3   ar
    12     3     7    1
    13     7     8   ar
    14     8     9   ar
    15     9    19    1
    16    19    20    1
    17    19    21    1
    18    19    22    1
    19     9    10   ar
    20    10    11   ar
    21    11    12    1
    22    11    13   ar
    23    13    14   ar
    24    14    15   ar
    25    15    16   ar
    26     3     4   ar
    27     4     5   ar
    28     5     6   ar
    29     6    34    1
    30    34    35    3
    31    31    32    1
    32    32    33    1
    33    32    24    1
    34     6     1   ar
    35    16     7   ar
    36    16    10   ar
    37    12    17    1
    38    12    18    1
