@<TRIPOS>MOLECULE
*****
 37 40 0 0 0
SMALL
GASTEIGER

@<TRIPOS>ATOM
      1 C          62.6850   88.6116   11.5317 C.3     1  UNL1        0.0282
      2 C          61.8470   89.8352   10.0464 C.3     1  UNL1        0.0025
      3 C          63.1989   88.7116   12.3414 C.3     1  UNL1        0.0460
      4 C          63.5638   88.1056   12.9968 C.3     1  UNL1        0.1691
      5 C          63.9110   86.9498   13.6894 C.3     1  UNL1        0.0434
      6 C          64.6508   86.5239   14.9228 C.3     1  UNL1        0.0040
      7 C          63.4744   86.9719   12.9888 C.3     1  UNL1        0.0038
      8 C          64.0011   89.4593   13.5349 C.3     1  UNL1        0.0001
      9 C          63.0218   87.0046   12.2612 C.3     1  UNL1        0.0001
     10 C          62.7924   86.3566   11.9715 C.3     1  UNL1        0.0005
     11 C          62.5485   85.6311   11.6679 C.3     1  UNL1        0.0093
     12 C          62.3044   84.1669   11.4519 C.3     1  UNL1        0.0082
     13 C          62.9530   83.4178   12.5780 C.3     1  UNL1        0.0645
     14 C          63.5980   84.4190   13.4900 C.2     1  UNL1        0.1504
     15 O          64.3593   84.1070   14.7442 O.2     1  UNL1       -0.2961
     16 C          63.3479   85.7869   12.9275 C.3     1  UNL1        0.0610
     17 C          62.3251   86.9069   11.1590 C.3     1  UNL1        0.0273
     18 C          61.2435   85.8600    9.5544 C.3     1  UNL1        0.0025
     19 C          62.3230   87.8639   11.0419 C.3     1  UNL1        0.1104
     20 O          61.2380   88.4885    9.2329 O.3     1  UNL1       -0.3845
     21 H          61.2633   89.4553    9.1584 H       1  UNL1        0.2103
     22 C          63.7906   91.6361   10.8420 C.3     1  UNL1        0.0001
     23 C          62.7448   90.7041   11.3783 C.3     1  UNL1        0.0024
     24 O          64.6453   89.1524   14.6013 O.3     1  UNL1       -0.4517
     25 C          64.7853   90.6453   14.5614 C.2     1  UNL1        0.3284
     26 O          63.5988   91.5177   14.8461 O.2     1  UNL1       -0.2491
     27 C          66.1117   91.2658   14.2369 C.3     1  UNL1        0.1743
     28 S          66.2050   92.7384   13.9671 S.3     1  UNL1       -0.0639
     29 C          66.4938   93.2299   12.5796 C.ar    1  UNL1        0.1914
     30 N          67.5009   92.6505   11.6308 N.ar    1  UNL1       -0.1211
     31 N          67.4558   93.4496   10.3622 N.ar    1  UNL1       -0.1129
     32 C          66.4209   94.5229   10.5269 C.ar    1  UNL1        0.2125
     33 N          66.0463   95.5514    9.5013 N.pl3   1  UNL1       -0.3277
     34 N          65.8264   94.3871   11.8974 N.ar    1  UNL1       -0.3048
     35 H          66.4958   95.5596    8.6254 H       1  UNL1        0.1451
     36 H          65.3510   96.2182    9.7040 H       1  UNL1        0.1451
     37 H          65.1218   94.9574   12.2817 H       1  UNL1        0.1706
@<TRIPOS>BOND
     1    22    23    1
     2    23     1    1
     3     1     2    1
     4     1     3    1
     5     3     4    1
     6     4    24    1
     7    24    25    1
     8    25    26    2
     9    25    27    1
    10    27    28    1
    11    28    29    1
    12    29    30   ar
    13    30    31   ar
    14    31    32   ar
    15    32    33    1
    16    32    34   ar
    17     4     5    1
    18     5     6    1
    19     5     7    1
    20     7     8    1
    21     7     9    1
    22     9    10    1
    23    11    10    1
    24    11    12    1
    25    12    13    1
    26    13    14    1
    27    14    15    2
    28    16    14    1
    29    11    17    1
    30    17    18    1
    31    17    19    1
    32    19    20    1
    33    19     1    1
    34    34    29   ar
    35    16     5    1
    36    16    11    1
    37    33    35    1
    38    33    36    1
    39    34    37    1
    40    20    21    1
@<TRIPOS>MOLECULE
*****
 37 40 0 0 0
SMALL
GASTEIGER

@<TRIPOS>ATOM
      1 C          63.3564   87.3873   12.8399 C.3     1  UNL1        0.0282
      2 C          64.2831   86.2229   14.3202 C.3     1  UNL1        0.0025
      3 C          63.2266   88.3203   12.6345 C.3     1  UNL1        0.0460
      4 C          62.7853   88.8084   11.9295 C.3     1  UNL1        0.1691
      5 C          62.0668   89.1237   10.7803 C.3     1  UNL1        0.0434
      6 C          61.5861   90.3201   10.0138 C.3     1  UNL1        0.0040
      7 C          62.2323   88.3586   11.0433 C.3     1  UNL1        0.0038
      8 C          63.3289   89.9291   12.8022 C.3     1  UNL1        0.0001
      9 C          62.4090   87.5678   11.3241 C.3     1  UNL1        0.0001
     10 C          62.1559   86.9958   10.9175 C.3     1  UNL1        0.0005
     11 C          61.8679   86.3784   10.4552 C.3     1  UNL1        0.0093
     12 C          61.1992   85.5703    9.3829 C.3     1  UNL1        0.0082
     13 C          60.5840   86.5225    8.4006 C.3     1  UNL1        0.0645
     14 C          60.8725   87.9190    8.8658 C.2     1  UNL1        0.1504
     15 O          60.4429   89.1827    8.1813 O.2     1  UNL1       -0.2961
     16 C          61.6660   87.8300   10.1356 C.3     1  UNL1        0.0610
     17 C          62.6046   86.3126   11.6340 C.3     1  UNL1        0.0273
     18 C          62.4466   84.1335   11.3758 C.3     1  UNL1        0.0025
     19 C          63.0987   86.5556   12.4255 C.3     1  UNL1        0.1104
     20 O          63.8038   84.8008   13.5496 O.3     1  UNL1       -0.3845
     21 H          64.2933   85.0945   14.3338 H       1  UNL1        0.2103
     22 C          63.9561   88.6558   15.8193 C.3     1  UNL1        0.0001
     23 C          64.4141   88.0318   14.5345 C.3     1  UNL1        0.0024
     24 O          62.9432   90.9874   12.1876 O.3     1  UNL1       -0.4517
     25 C          64.0818   91.5693   12.9717 C.2     1  UNL1        0.3284
     26 O          63.9988   91.6497   14.4673 O.2     1  UNL1       -0.2491
     27 C          65.3035   92.0708   12.2605 C.3     1  UNL1        0.1743
     28 S          65.1996   92.5628   10.8472 S.3     1  UNL1       -0.0639
     29 C          66.3186   93.3611   10.2468 C.ar    1  UNL1        0.1914
     30 N          67.7682   92.9757   10.2335 N.ar    1  UNL1       -0.1211
     31 N          68.5301   94.0613    9.5327 N.ar    1  UNL1       -0.1129
     32 C          67.5513   95.1176    9.1129 C.ar    1  UNL1        0.2125
     33 N          67.8814   96.3843    8.3803 N.pl3   1  UNL1       -0.3277
     34 N          66.1845   94.6849    9.5542 N.ar    1  UNL1       -0.3048
     35 H          68.8136   96.5809    8.1324 H       1  UNL1        0.1451
     36 H          67.1657   97.0190    8.1475 H       1  UNL1        0.1451
     37 H          65.3466   95.1823    9.4139 H       1  UNL1        0.1706
@<TRIPOS>BOND
     1    22    23    1
     2    23     1    1
     3     1     2    1
     4     1     3    1
     5     3     4    1
     6     4    24    1
     7    24    25    1
     8    25    26    2
     9    25    27    1
    10    27    28    1
    11    28    29    1
    12    29    30   ar
    13    30    31   ar
    14    31    32   ar
    15    32    33    1
    16    32    34   ar
    17     4     5    1
    18     5     6    1
    19     5     7    1
    20     7     8    1
    21     7     9    1
    22     9    10    1
    23    11    10    1
    24    11    12    1
    25    12    13    1
    26    13    14    1
    27    14    15    2
    28    16    14    1
    29    11    17    1
    30    17    18    1
    31    17    19    1
    32    19    20    1
    33    19     1    1
    34    34    29   ar
    35    16     5    1
    36    16    11    1
    37    33    35    1
    38    33    36    1
    39    34    37    1
    40    20    21    1
@<TRIPOS>MOLECULE
*****
 37 40 0 0 0
SMALL
GASTEIGER

@<TRIPOS>ATOM
      1 C          62.6376   88.5735   11.4723 C.3     1  UNL1        0.0282
      2 C          61.8119   89.7856    9.9708 C.3     1  UNL1        0.0025
      3 C          63.1269   88.6809   12.2962 C.3     1  UNL1        0.0460
      4 C          63.4879   88.0799   12.9583 C.3     1  UNL1        0.1691
      5 C          63.8430   86.9286   13.6544 C.3     1  UNL1        0.0434
      6 C          64.5588   86.5131   14.9055 C.3     1  UNL1        0.0040
      7 C          63.4252   86.9445   12.9423 C.3     1  UNL1        0.0038
      8 C          63.8787   89.4403   13.5148 C.3     1  UNL1        0.0001
      9 C          62.9918   86.9707   12.2028 C.3     1  UNL1        0.0001
     10 C          62.7855   86.3192   11.9038 C.3     1  UNL1        0.0005
     11 C          62.5669   85.5899   11.5901 C.3     1  UNL1        0.0093
     12 C          62.3630   84.1218   11.3602 C.3     1  UNL1        0.0082
     13 C          62.9981   83.3816   12.4999 C.3     1  UNL1        0.0645
     14 C          63.5946   84.3924   13.4341 C.2     1  UNL1        0.1504
     15 O          64.3286   84.0911   14.7070 O.2     1  UNL1       -0.2961
     16 C          63.3281   85.7572   12.8718 C.3     1  UNL1        0.0610
     17 C          62.3278   86.8630   11.0816 C.3     1  UNL1        0.0273
     18 C          61.3149   85.8004    9.4430 C.3     1  UNL1        0.0025
     19 C          62.3066   87.8204   10.9692 C.3     1  UNL1        0.1104
     20 O          61.2568   88.4298    9.1344 O.3     1  UNL1       -0.3845
     21 H          61.2615   89.3973    9.0653 H       1  UNL1        0.2103
     22 C          63.7182   91.6312   10.8992 C.3     1  UNL1        0.0001
     23 C          62.6527   90.6677   11.3310 C.3     1  UNL1        0.0024
     24 O          64.5007   89.1426   14.5969 O.3     1  UNL1       -0.4517
     25 C          63.6931   89.8129   15.6684 C.2     1  UNL1        0.3284
     26 O          62.7283   89.0123   16.4919 O.2     1  UNL1       -0.2491
     27 C          63.8502   91.2838   15.9165 C.3     1  UNL1        0.1743
     28 S          65.2154   91.8662   16.1338 S.3     1  UNL1       -0.0639
     29 C          66.1324   92.0839   14.9668 C.ar    1  UNL1        0.1914
     30 N          65.8299   92.9061   13.7492 N.ar    1  UNL1       -0.1211
     31 N          67.0234   92.8480   12.8424 N.ar    1  UNL1       -0.1129
     32 C          68.0635   91.9900   13.4996 C.ar    1  UNL1        0.2125
     33 N          69.4167   91.6617   12.9419 N.pl3   1  UNL1       -0.3277
     34 N          67.5129   91.5177   14.8126 N.ar    1  UNL1       -0.3048
     35 H          69.6889   92.0213   12.0667 H       1  UNL1        0.1451
     36 H          70.0327   91.0867   13.4509 H       1  UNL1        0.1451
     37 H          67.9761   90.9380   15.4595 H       1  UNL1        0.1706
@<TRIPOS>BOND
     1    22    23    1
     2    23     1    1
     3     1     2    1
     4     1     3    1
     5     3     4    1
     6     4    24    1
     7    24    25    1
     8    25    26    2
     9    25    27    1
    10    27    28    1
    11    28    29    1
    12    29    30   ar
    13    30    31   ar
    14    31    32   ar
    15    32    33    1
    16    32    34   ar
    17     4     5    1
    18     5     6    1
    19     5     7    1
    20     7     8    1
    21     7     9    1
    22     9    10    1
    23    11    10    1
    24    11    12    1
    25    12    13    1
    26    13    14    1
    27    14    15    2
    28    16    14    1
    29    11    17    1
    30    17    18    1
    31    17    19    1
    32    19    20    1
    33    19     1    1
    34    34    29   ar
    35    16     5    1
    36    16    11    1
    37    33    35    1
    38    33    36    1
    39    34    37    1
    40    20    21    1
@<TRIPOS>MOLECULE
*****
 37 40 0 0 0
SMALL
GASTEIGER

@<TRIPOS>ATOM
      1 C          63.2940   87.3391   12.7160 C.3     1  UNL1        0.0282
      2 C          64.2846   86.2418   14.2061 C.3     1  UNL1        0.0025
      3 C          63.1172   88.2618   12.4991 C.3     1  UNL1        0.0460
      4 C          62.6489   88.7181   11.7903 C.3     1  UNL1        0.1691
      5 C          61.9098   88.9822   10.6413 C.3     1  UNL1        0.0434
      6 C          61.3667   90.1431    9.8620 C.3     1  UNL1        0.0040
      7 C          62.1142   88.2298   10.9133 C.3     1  UNL1        0.0038
      8 C          63.1409   89.8758   12.6451 C.3     1  UNL1        0.0001
      9 C          62.3311   87.4525   11.2034 C.3     1  UNL1        0.0001
     10 C          62.1044   86.8633   10.8059 C.3     1  UNL1        0.0005
     11 C          61.8449   86.2263   10.3533 C.3     1  UNL1        0.0093
     12 C          61.2114   85.3720    9.2956 C.3     1  UNL1        0.0082
     13 C          60.5450   86.2794    8.3045 C.3     1  UNL1        0.0645
     14 C          60.7666   87.6946    8.7497 C.2     1  UNL1        0.1504
     15 O          60.2717   88.9264    8.0512 O.2     1  UNL1       -0.2961
     16 C          61.5700   87.6618   10.0159 C.3     1  UNL1        0.0610
     17 C          62.5899   86.2127   11.5286 C.3     1  UNL1        0.0273
     18 C          62.5384   84.0251   11.3000 C.3     1  UNL1        0.0025
     19 C          63.0755   86.4903   12.3140 C.3     1  UNL1        0.1104
     20 O          63.8721   84.7876   13.4570 O.3     1  UNL1       -0.3845
     21 H          64.3505   85.1155   14.2344 H       1  UNL1        0.2103
     22 C          63.8677   88.8361   15.5928 C.3     1  UNL1        0.0001
     23 C          64.3273   88.0576   14.3958 C.3     1  UNL1        0.0024
     24 O          62.7004   90.9055   12.0189 O.3     1  UNL1       -0.4517
     25 C          63.9974   91.5984   12.3150 C.2     1  UNL1        0.3284
     26 O          64.4639   91.7425   13.7333 O.2     1  UNL1       -0.2491
     27 C          64.8278   92.1471   11.1929 C.3     1  UNL1        0.1743
     28 S          65.8704   93.1890   11.4714 S.3     1  UNL1       -0.0639
     29 C          66.5750   93.2098   12.7955 C.ar    1  UNL1        0.1914
     30 N          66.3571   94.2070   13.8946 N.ar    1  UNL1       -0.1211
     31 N          67.2685   93.8506   15.0314 N.ar    1  UNL1       -0.1129
     32 C          68.0498   92.6331   14.6348 C.ar    1  UNL1        0.2125
     33 N          69.0790   91.9343   15.4729 N.pl3   1  UNL1       -0.3277
     34 N          67.6212   92.2370   13.2529 N.ar    1  UNL1       -0.3048
     35 H          69.2929   92.2718   16.3727 H       1  UNL1        0.1451
     36 H          69.5406   91.1381   15.1232 H       1  UNL1        0.1451
     37 H          67.9659   91.4728   12.7369 H       1  UNL1        0.1706
@<TRIPOS>BOND
     1    22    23    1
     2    23     1    1
     3     1     2    1
     4     1     3    1
     5     3     4    1
     6     4    24    1
     7    24    25    1
     8    25    26    2
     9    25    27    1
    10    27    28    1
    11    28    29    1
    12    29    30   ar
    13    30    31   ar
    14    31    32   ar
    15    32    33    1
    16    32    34   ar
    17     4     5    1
    18     5     6    1
    19     5     7    1
    20     7     8    1
    21     7     9    1
    22     9    10    1
    23    11    10    1
    24    11    12    1
    25    12    13    1
    26    13    14    1
    27    14    15    2
    28    16    14    1
    29    11    17    1
    30    17    18    1
    31    17    19    1
    32    19    20    1
    33    19     1    1
    34    34    29   ar
    35    16     5    1
    36    16    11    1
    37    33    35    1
    38    33    36    1
    39    34    37    1
    40    20    21    1
@<TRIPOS>MOLECULE
*****
 37 40 0 0 0
SMALL
GASTEIGER

@<TRIPOS>ATOM
      1 C          63.4478   86.3927   12.9836 C.3     1  UNL1        0.0282
      2 C          64.2178   84.8256   14.1486 C.3     1  UNL1        0.0025
      3 C          63.4189   87.3563   13.0020 C.3     1  UNL1        0.0460
      4 C          63.0455   88.0384   12.4317 C.3     1  UNL1        0.1691
      5 C          62.3882   88.6857   11.3899 C.3     1  UNL1        0.0434
      6 C          62.0495   90.0711   10.9253 C.3     1  UNL1        0.0040
      7 C          62.4686   87.8674   11.4666 C.3     1  UNL1        0.0038
      8 C          63.6821   88.8622   13.5403 C.3     1  UNL1        0.0001
      9 C          62.5570   87.0190   11.5545 C.3     1  UNL1        0.0001
     10 C          62.2554   86.5869   11.0265 C.3     1  UNL1        0.0005
     11 C          61.9157   86.1275   10.4335 C.3     1  UNL1        0.0093
     12 C          61.1910   85.6655    9.2042 C.3     1  UNL1        0.0082
     13 C          60.6982   86.8790    8.4731 C.3     1  UNL1        0.0645
     14 C          61.1183   88.0911    9.2506 C.2     1  UNL1        0.1504
     15 O          60.8356   89.5171    8.8813 O.2     1  UNL1       -0.2961
     16 C          61.8708   87.6266   10.4622 C.3     1  UNL1        0.0610
     17 C          62.6159   85.7128   11.5623 C.3     1  UNL1        0.0273
     18 C          62.2408   83.6822   10.8031 C.3     1  UNL1        0.0025
     19 C          63.1151   85.7119   12.3872 C.3     1  UNL1        0.1104
     20 O          63.6119   83.6799   13.0687 O.3     1  UNL1       -0.3845
     21 H          64.1118   83.7303   13.8984 H       1  UNL1        0.2103
     22 C          64.0908   86.4682   16.2126 C.3     1  UNL1        0.0001
     23 C          64.5291   86.5112   14.7787 C.3     1  UNL1        0.0024
     24 O          63.4206   90.0688   13.1909 O.3     1  UNL1       -0.4517
     25 C          63.4910   90.3160   14.6686 C.2     1  UNL1        0.3284
     26 O          62.5469   89.6065   15.5935 O.2     1  UNL1       -0.2491
     27 C          64.5054   91.2726   15.2216 C.3     1  UNL1        0.1743
     28 S          65.9049   91.2767   14.6817 S.3     1  UNL1       -0.0639
     29 C          66.2110   91.9873   13.3967 C.ar    1  UNL1        0.1914
     30 N          67.5776   92.2338   12.8293 N.ar    1  UNL1       -0.1211
     31 N          67.4155   92.9750   11.5354 N.ar    1  UNL1       -0.1129
     32 C          65.9488   93.1867   11.3030 C.ar    1  UNL1        0.2125
     33 N          65.3343   93.8860   10.1269 N.pl3   1  UNL1       -0.3277
     34 N          65.2043   92.5763   12.4534 N.ar    1  UNL1       -0.3048
     35 H          65.9094   94.2556    9.4184 H       1  UNL1        0.1451
     36 H          64.3560   93.9754   10.0634 H       1  UNL1        0.1451
     37 H          64.2267   92.5643   12.5690 H       1  UNL1        0.1706
@<TRIPOS>BOND
     1    22    23    1
     2    23     1    1
     3     1     2    1
     4     1     3    1
     5     3     4    1
     6     4    24    1
     7    24    25    1
     8    25    26    2
     9    25    27    1
    10    27    28    1
    11    28    29    1
    12    29    30   ar
    13    30    31   ar
    14    31    32   ar
    15    32    33    1
    16    32    34   ar
    17     4     5    1
    18     5     6    1
    19     5     7    1
    20     7     8    1
    21     7     9    1
    22     9    10    1
    23    11    10    1
    24    11    12    1
    25    12    13    1
    26    13    14    1
    27    14    15    2
    28    16    14    1
    29    11    17    1
    30    17    18    1
    31    17    19    1
    32    19    20    1
    33    19     1    1
    34    34    29   ar
    35    16     5    1
    36    16    11    1
    37    33    35    1
    38    33    36    1
    39    34    37    1
    40    20    21    1
@<TRIPOS>MOLECULE
*****
 37 40 0 0 0
SMALL
GASTEIGER

@<TRIPOS>ATOM
      1 C          63.3320   90.7401   12.1228 C.3     1  UNL1        0.0282
      2 C          62.4874   90.3868   10.2340 C.3     1  UNL1        0.0025
      3 C          63.2279   90.4253   13.0281 C.3     1  UNL1        0.0460
      4 C          63.6492   90.6249   13.8723 C.3     1  UNL1        0.1691
      5 C          64.4738   91.1768   14.8478 C.3     1  UNL1        0.0434
      6 C          64.7408   91.0798   16.3207 C.3     1  UNL1        0.0040
      7 C          64.4839   91.3773   14.0468 C.3     1  UNL1        0.0038
      8 C          62.6326   89.5642   14.2655 C.3     1  UNL1        0.0001
      9 C          64.4873   91.5791   13.2133 C.3     1  UNL1        0.0001
     10 C          64.9751   92.0968   12.9885 C.3     1  UNL1        0.0005
     11 C          65.5205   92.6699   12.7605 C.3     1  UNL1        0.0093
     12 C          66.6062   93.7049   12.7517 C.3     1  UNL1        0.0082
     13 C          67.1152   93.8546   14.1547 C.3     1  UNL1        0.0645
     14 C          66.3440   92.9123   15.0306 C.2     1  UNL1        0.1504
     15 O          66.5264   92.7335   16.5087 O.2     1  UNL1       -0.2961
     16 C          65.3584   92.1801   14.1689 C.3     1  UNL1        0.0610
     17 C          64.6007   91.9822   11.9746 C.3     1  UNL1        0.0273
     18 C          65.4316   93.1675   10.3178 C.3     1  UNL1        0.0025
     19 C          63.9007   91.3851   11.6864 C.3     1  UNL1        0.1104
     20 O          63.5091   91.5274    9.5262 O.3     1  UNL1       -0.3845
     21 H          62.8004   90.9108    9.2847 H       1  UNL1        0.2103
     22 C          60.3055   89.5049   11.7228 C.3     1  UNL1        0.0001
     23 C          61.7977   89.4030   11.6093 C.3     1  UNL1        0.0024
     24 O          62.8183   89.4397   15.5290 O.3     1  UNL1       -0.4517
     25 C          63.3428   88.0612   15.8019 C.2     1  UNL1        0.3284
     26 O          62.9333   87.3364   17.0497 O.2     1  UNL1       -0.2491
     27 C          64.2767   87.4074   14.8272 C.3     1  UNL1        0.1743
     28 S          64.7278   85.9947   15.0527 S.3     1  UNL1       -0.0639
     29 C          63.9274   84.8541   14.4974 C.ar    1  UNL1        0.1914
     30 N          63.4986   84.6908   13.0693 N.ar    1  UNL1       -0.1211
     31 N          62.7215   83.4123   12.9619 N.ar    1  UNL1       -0.1129
     32 C          62.6700   82.7855   14.3237 C.ar    1  UNL1        0.2125
     33 N          61.9922   81.4942   14.6749 N.pl3   1  UNL1       -0.3277
     34 N          63.4153   83.6766   15.2727 N.ar    1  UNL1       -0.3048
     35 H          61.5260   80.9777   13.9784 H       1  UNL1        0.1451
     36 H          62.0134   81.1634   15.6019 H       1  UNL1        0.1451
     37 H          63.5455   83.5166   16.2354 H       1  UNL1        0.1706
@<TRIPOS>BOND
     1    22    23    1
     2    23     1    1
     3     1     2    1
     4     1     3    1
     5     3     4    1
     6     4    24    1
     7    24    25    1
     8    25    26    2
     9    25    27    1
    10    27    28    1
    11    28    29    1
    12    29    30   ar
    13    30    31   ar
    14    31    32   ar
    15    32    33    1
    16    32    34   ar
    17     4     5    1
    18     5     6    1
    19     5     7    1
    20     7     8    1
    21     7     9    1
    22     9    10    1
    23    11    10    1
    24    11    12    1
    25    12    13    1
    26    13    14    1
    27    14    15    2
    28    16    14    1
    29    11    17    1
    30    17    18    1
    31    17    19    1
    32    19    20    1
    33    19     1    1
    34    34    29   ar
    35    16     5    1
    36    16    11    1
    37    33    35    1
    38    33    36    1
    39    34    37    1
    40    20    21    1
@<TRIPOS>MOLECULE
*****
 37 40 0 0 0
SMALL
GASTEIGER

@<TRIPOS>ATOM
      1 C          62.5121   86.9228   11.6124 C.3     1  UNL1        0.0282
      2 C          61.5284   85.5304   10.3879 C.3     1  UNL1        0.0025
      3 C          63.0097   86.9301   12.4383 C.3     1  UNL1        0.0460
      4 C          63.4470   87.6092   12.9650 C.3     1  UNL1        0.1691
      5 C          63.9351   88.8320   13.4152 C.3     1  UNL1        0.0434
      6 C          64.7222   89.4098   14.5539 C.3     1  UNL1        0.0040
      7 C          63.4991   88.7192   12.7231 C.3     1  UNL1        0.0038
      8 C          63.7130   86.3526   13.7794 C.3     1  UNL1        0.0001
      9 C          63.0457   88.5925   12.0063 C.3     1  UNL1        0.0001
     10 C          62.8985   89.1899   11.5844 C.3     1  UNL1        0.0005
     11 C          62.7464   89.8614   11.1328 C.3     1  UNL1        0.0093
     12 C          62.6859   91.2682   10.6158 C.3     1  UNL1        0.0082
     13 C          63.4227   92.1488   11.5811 C.3     1  UNL1        0.0645
     14 C          63.9385   91.2863   12.6946 C.2     1  UNL1        0.1504
     15 O          64.7328   91.7552   13.8775 O.2     1  UNL1       -0.2961
     16 C          63.5206   89.8726   12.4176 C.3     1  UNL1        0.0610
     17 C          62.3664   88.5449   10.8900 C.3     1  UNL1        0.0273
     18 C          61.4229   89.3621    9.0783 C.3     1  UNL1        0.0025
     19 C          62.2456   87.5918   10.9711 C.3     1  UNL1        0.1104
     20 O          61.0911   86.7443    9.3010 O.3     1  UNL1       -0.3845
     21 H          60.9962   85.7872    9.4264 H       1  UNL1        0.2103
     22 C          63.0539   83.6892   11.3031 C.3     1  UNL1        0.0001
     23 C          62.3116   84.8522   11.8917 C.3     1  UNL1        0.0024
     24 O          64.3905   86.7920   14.7766 O.3     1  UNL1       -0.4517
     25 C          64.1026   85.3827   15.2017 C.2     1  UNL1        0.3284
     26 O          63.2165   85.1220   16.3836 O.2     1  UNL1       -0.2491
     27 C          64.7008   84.2340   14.4450 C.3     1  UNL1        0.1743
     28 S          64.5474   82.8342   14.9619 S.3     1  UNL1       -0.0639
     29 C          63.4697   81.9463   14.4142 C.ar    1  UNL1        0.1914
     30 N          63.6413   80.9076   13.3457 N.ar    1  UNL1       -0.1211
     31 N          62.3088   80.2605   13.1099 N.ar    1  UNL1       -0.1129
     32 C          61.3135   80.8993   14.0326 C.ar    1  UNL1        0.2125
     33 N          59.8566   80.5565   14.1319 N.pl3   1  UNL1       -0.3277
     34 N          62.0310   81.9412   14.8387 N.ar    1  UNL1       -0.3048
     35 H          59.4761   79.8535   13.5572 H       1  UNL1        0.1451
     36 H          59.2809   81.0344   14.7718 H       1  UNL1        0.1451
     37 H          61.6284   82.5201   15.5258 H       1  UNL1        0.1706
@<TRIPOS>BOND
     1    22    23    1
     2    23     1    1
     3     1     2    1
     4     1     3    1
     5     3     4    1
     6     4    24    1
     7    24    25    1
     8    25    26    2
     9    25    27    1
    10    27    28    1
    11    28    29    1
    12    29    30   ar
    13    30    31   ar
    14    31    32   ar
    15    32    33    1
    16    32    34   ar
    17     4     5    1
    18     5     6    1
    19     5     7    1
    20     7     8    1
    21     7     9    1
    22     9    10    1
    23    11    10    1
    24    11    12    1
    25    12    13    1
    26    13    14    1
    27    14    15    2
    28    16    14    1
    29    11    17    1
    30    17    18    1
    31    17    19    1
    32    19    20    1
    33    19     1    1
    34    34    29   ar
    35    16     5    1
    36    16    11    1
    37    33    35    1
    38    33    36    1
    39    34    37    1
    40    20    21    1
@<TRIPOS>MOLECULE
*****
 37 40 0 0 0
SMALL
GASTEIGER

@<TRIPOS>ATOM
      1 C          63.0549   89.0142   12.0632 C.3     1  UNL1        0.0282
      2 C          63.4720   90.9540   12.7480 C.3     1  UNL1        0.0025
      3 C          62.6629   88.5927   11.2897 C.3     1  UNL1        0.0460
      4 C          62.4930   87.6820   11.0220 C.3     1  UNL1        0.1691
      5 C          62.4241   86.2923   11.0080 C.3     1  UNL1        0.0434
      6 C          61.9510   85.1707   10.1315 C.3     1  UNL1        0.0040
      7 C          62.7400   86.7471   11.6207 C.3     1  UNL1        0.0038
      8 C          61.9562   88.4689    9.8364 C.3     1  UNL1        0.0001
      9 C          63.0659   87.2275   12.2518 C.3     1  UNL1        0.0001
     10 C          63.3376   86.8708   12.8480 C.3     1  UNL1        0.0005
     11 C          63.6322   86.4586   13.4970 C.3     1  UNL1        0.0093
     12 C          64.0453   85.3794   14.4534 C.3     1  UNL1        0.0082
     13 C          63.6908   84.0568   13.8411 C.3     1  UNL1        0.0645
     14 C          63.0585   84.3185   12.5062 C.2     1  UNL1        0.1504
     15 O          62.5515   83.2784   11.5517 O.2     1  UNL1       -0.2961
     16 C          63.0224   85.8029   12.2936 C.3     1  UNL1        0.0610
     17 C          63.5913   87.8333   13.2847 C.3     1  UNL1        0.0273
     18 C          64.5503   87.9652   15.2603 C.3     1  UNL1        0.0025
     19 C          63.4395   88.6996   12.8896 C.3     1  UNL1        0.1104
     20 O          64.1333   90.3445   14.1753 O.3     1  UNL1       -0.3845
     21 H          63.9599   91.1924   13.7373 H       1  UNL1        0.2103
     22 C          63.3928   91.5601   10.0017 C.3     1  UNL1        0.0001
     23 C          62.6760   90.8445   11.1080 C.3     1  UNL1        0.0024
     24 O          61.5341   87.5501    9.0464 O.3     1  UNL1       -0.4517
     25 C          60.1313   88.0470    8.8589 C.2     1  UNL1        0.3284
     26 O          58.9898   87.3413    9.5290 O.2     1  UNL1       -0.2491
     27 C          59.8699   89.2495    8.0012 C.3     1  UNL1        0.1743
     28 S          59.2039   89.0886    6.6668 S.3     1  UNL1       -0.0639
     29 C          58.9038   90.2953    5.8279 C.ar    1  UNL1        0.1914
     30 N          57.5426   90.8638    5.5560 N.ar    1  UNL1       -0.1211
     31 N          57.7098   92.0652    4.6737 N.ar    1  UNL1       -0.1129
     32 C          59.1744   92.2394    4.4004 C.ar    1  UNL1        0.2125
     33 N          59.7925   93.3181    3.5611 N.pl3   1  UNL1       -0.3277
     34 N          59.9124   91.1455    5.1138 N.ar    1  UNL1       -0.3048
     35 H          59.2217   93.9951    3.1311 H       1  UNL1        0.1451
     36 H          60.7691   93.3490    3.4403 H       1  UNL1        0.1451
     37 H          60.8874   91.0095    5.1133 H       1  UNL1        0.1706
@<TRIPOS>BOND
     1    22    23    1
     2    23     1    1
     3     1     2    1
     4     1     3    1
     5     3     4    1
     6     4    24    1
     7    24    25    1
     8    25    26    2
     9    25    27    1
    10    27    28    1
    11    28    29    1
    12    29    30   ar
    13    30    31   ar
    14    31    32   ar
    15    32    33    1
    16    32    34   ar
    17     4     5    1
    18     5     6    1
    19     5     7    1
    20     7     8    1
    21     7     9    1
    22     9    10    1
    23    11    10    1
    24    11    12    1
    25    12    13    1
    26    13    14    1
    27    14    15    2
    28    16    14    1
    29    11    17    1
    30    17    18    1
    31    17    19    1
    32    19    20    1
    33    19     1    1
    34    34    29   ar
    35    16     5    1
    36    16    11    1
    37    33    35    1
    38    33    36    1
    39    34    37    1
    40    20    21    1
@<TRIPOS>MOLECULE
*****
 37 40 0 0 0
SMALL
GASTEIGER

@<TRIPOS>ATOM
      1 C          65.5003   91.6155   13.6389 C.3     1  UNL1        0.0282
      2 C          67.3268   92.6027   13.9470 C.3     1  UNL1        0.0025
      3 C          64.8788   91.0776   14.1430 C.3     1  UNL1        0.0460
      4 C          64.0406   90.6419   13.9492 C.3     1  UNL1        0.1691
      5 C          62.9034   90.1813   13.2928 C.3     1  UNL1        0.0434
      6 C          61.6746   89.3617   13.5540 C.3     1  UNL1        0.0040
      7 C          63.4942   90.6468   12.9518 C.3     1  UNL1        0.0038
      8 C          64.2554   90.2850   15.4119 C.3     1  UNL1        0.0001
      9 C          64.1125   91.1301   12.6062 C.3     1  UNL1        0.0001
     10 C          64.0362   91.3223   11.8894 C.3     1  UNL1        0.0005
     11 C          63.9337   91.5237   11.0977 C.3     1  UNL1        0.0093
     12 C          63.3984   91.6666    9.7038 C.3     1  UNL1        0.0082
     13 C          62.1008   90.9182    9.6266 C.3     1  UNL1        0.0645
     14 C          61.8341   90.3127   10.9728 C.2     1  UNL1        0.1504
     15 O          60.6436   89.4794   11.3446 O.2     1  UNL1       -0.2961
     16 C          62.9669   90.6870   11.8820 C.3     1  UNL1        0.0610
     17 C          64.9773   91.8623   11.9537 C.3     1  UNL1        0.0273
     18 C          65.7951   92.9279   10.2112 C.3     1  UNL1        0.0025
     19 C          65.5411   91.9405   12.7320 C.3     1  UNL1        0.1104
     20 O          67.3434   93.1426   12.3488 O.3     1  UNL1       -0.3845
     21 H          67.8767   93.1925   13.1575 H       1  UNL1        0.2103
     22 C          66.6627   92.7087   16.5198 C.3     1  UNL1        0.0001
     23 C          66.6479   91.7182   15.3934 C.3     1  UNL1        0.0024
     24 O          63.2229   89.5764   15.6916 O.3     1  UNL1       -0.4517
     25 C          63.5708   88.1355   15.9208 C.2     1  UNL1        0.3284
     26 O          63.1125   87.4428   17.1698 O.2     1  UNL1       -0.2491
     27 C          64.3770   87.3872   14.9010 C.3     1  UNL1        0.1743
     28 S          64.7625   85.9592   15.1505 S.3     1  UNL1       -0.0639
     29 C          63.9371   84.8476   14.5731 C.ar    1  UNL1        0.1914
     30 N          63.4564   84.7510   13.1555 N.ar    1  UNL1       -0.1211
     31 N          62.6697   83.4813   13.0183 N.ar    1  UNL1       -0.1129
     32 C          62.6642   82.7931   14.3511 C.ar    1  UNL1        0.2125
     33 N          61.9932   81.4894   14.6675 N.pl3   1  UNL1       -0.3277
     34 N          63.4475   83.6376   15.3121 N.ar    1  UNL1       -0.3048
     35 H          61.4998   81.0067   13.9656 H       1  UNL1        0.1451
     36 H          62.0462   81.1165   15.5771 H       1  UNL1        0.1451
     37 H          63.6115   83.4335   16.2612 H       1  UNL1        0.1706
@<TRIPOS>BOND
     1    22    23    1
     2    23     1    1
     3     1     2    1
     4     1     3    1
     5     3     4    1
     6     4    24    1
     7    24    25    1
     8    25    26    2
     9    25    27    1
    10    27    28    1
    11    28    29    1
    12    29    30   ar
    13    30    31   ar
    14    31    32   ar
    15    32    33    1
    16    32    34   ar
    17     4     5    1
    18     5     6    1
    19     5     7    1
    20     7     8    1
    21     7     9    1
    22     9    10    1
    23    11    10    1
    24    11    12    1
    25    12    13    1
    26    13    14    1
    27    14    15    2
    28    16    14    1
    29    11    17    1
    30    17    18    1
    31    17    19    1
    32    19    20    1
    33    19     1    1
    34    34    29   ar
    35    16     5    1
    36    16    11    1
    37    33    35    1
    38    33    36    1
    39    34    37    1
    40    20    21    1
