@<TRIPOS>MOLECULE
*****
 30 34 0 0 0
SMALL
GASTEIGER

@<TRIPOS>ATOM
      1 C          66.7733   92.6370   12.8141 C.3     1  UNL1        0.1066
      2 C          67.6644   92.6658   14.0205 C.3     1  UNL1        0.0694
      3 C          66.8352   92.3078   15.2180 C.3     1  UNL1        0.2385
      4 F          67.3238   92.2160   16.6332 F       1  UNL1       -0.2273
      5 C          65.4315   92.0577   14.7519 C.2     1  UNL1        0.2588
      6 O          64.2701   91.6720   15.6191 O.2     1  UNL1       -0.2719
      7 N          65.3933   92.2612   13.2663 N.am    1  UNL1       -0.2708
      8 C          66.6537   94.1451   10.7019 C.ar    1  UNL1        0.1384
      9 C          67.0695   94.4403    9.2913 C.ar    1  UNL1        0.0368
     10 C          68.0208   93.5226    8.5823 C.ar    1  UNL1        0.0054
     11 C          68.5563   92.3098    9.2838 C.ar    1  UNL1        0.0296
     12 C          68.1405   92.0145   10.6945 C.ar    1  UNL1        0.1406
     13 F          68.6760   90.8017   11.3960 F       1  UNL1       -0.2043
     14 C          67.1892   92.9322   11.4036 C.ar    1  UNL1        0.0572
     15 C          65.9686   96.5385   11.4450 C.3     1  UNL1        0.2525
     16 O          65.7023   95.0628   11.4110 O.3     1  UNL1       -0.4716
     17 C          64.1869   92.1146   12.3870 C.3     1  UNL1        0.1205
     18 C          63.6233   90.7528   12.1078 C.ar    1  UNL1       -0.0021
     19 C          64.0155   89.5880   12.9678 C.ar    1  UNL1        0.0005
     20 C          63.4519   88.2263   12.6885 C.ar    1  UNL1        0.0372
     21 C          62.4962   88.0292   11.5493 C.ar    1  UNL1        0.1453
     22 O          61.7832   86.8134   11.0362 O.2     1  UNL1       -0.4535
     23 C          60.9503   87.2267    9.8590 C.ar    1  UNL1        0.1453
     24 C          60.0370   86.4534    8.9547 C.ar    1  UNL1        0.0375
     25 C          59.3221   87.1515    7.8360 C.ar    1  UNL1        0.0031
     26 C          59.5204   88.6228    7.6216 C.ar    1  UNL1        0.0002
     27 C          60.4337   89.3960    8.5260 C.ar    1  UNL1        0.0031
     28 C          61.1487   88.6980    9.6447 C.ar    1  UNL1        0.0375
     29 C          62.1041   89.1940   10.6893 C.ar    1  UNL1        0.0372
     30 C          62.6676   90.5557   10.9686 C.ar    1  UNL1        0.0005
@<TRIPOS>BOND
     1    15    16    1
     2    16     8    1
     3     8     9   ar
     4     9    10   ar
     5    10    11   ar
     6    11    12   ar
     7    12    13    1
     8    12    14   ar
     9     1    14    1
    10     1     2    1
    11     2     3    1
    12     3     4    1
    13     3     5    1
    14     5     6    2
    15     5     7   am
    16     7    17    1
    17    17    18    1
    18    18    19   ar
    19    19    20   ar
    20    20    21   ar
    21    21    22   ar
    22    22    23   ar
    23    23    24   ar
    24    24    25   ar
    25    25    26   ar
    26    26    27   ar
    27    27    28   ar
    28    28    29   ar
    29    29    30   ar
    30    14     8   ar
    31     7     1    1
    32    30    18   ar
    33    29    21   ar
    34    28    23   ar
@<TRIPOS>MOLECULE
*****
 30 34 0 0 0
SMALL
GASTEIGER

@<TRIPOS>ATOM
      1 C          66.8074   92.6834   12.8721 C.3     1  UNL1        0.1066
      2 C          67.7041   92.7422   14.0732 C.3     1  UNL1        0.0694
      3 C          66.8922   92.3654   15.2768 C.3     1  UNL1        0.2385
      4 F          67.3911   92.2931   16.6895 F       1  UNL1       -0.2273
      5 C          65.4936   92.0736   14.8197 C.2     1  UNL1        0.2588
      6 O          64.3485   91.6583   15.6949 O.2     1  UNL1       -0.2719
      7 N          65.4412   92.2701   13.3335 N.am    1  UNL1       -0.2708
      8 C          66.7037   94.2275   10.7853 C.ar    1  UNL1        0.1384
      9 C          67.1030   94.5290    9.3712 C.ar    1  UNL1        0.0368
     10 C          68.0054   93.5876    8.6299 C.ar    1  UNL1        0.0054
     11 C          68.5084   92.3449    9.3026 C.ar    1  UNL1        0.0296
     12 C          68.1091   92.0435   10.7167 C.ar    1  UNL1        0.1406
     13 F          68.6122   90.8007   11.3894 F       1  UNL1       -0.2043
     14 C          67.2067   92.9848   11.4581 C.ar    1  UNL1        0.0572
     15 C          65.8272   96.6355   11.2134 C.3     1  UNL1        0.2525
     16 O          65.8013   95.1688   11.5267 O.3     1  UNL1       -0.4716
     17 C          64.2346   92.0858   12.4618 C.3     1  UNL1        0.1205
     18 C          63.7234   90.7059   12.1705 C.ar    1  UNL1       -0.0021
     19 C          62.8845   90.4586   10.9520 C.ar    1  UNL1        0.0005
     20 C          62.3734   89.0787   10.6608 C.ar    1  UNL1        0.0372
     21 C          62.7012   87.9462   11.5881 C.ar    1  UNL1        0.1453
     22 O          62.3414   86.4903   11.5609 O.2     1  UNL1       -0.4535
     23 C          62.9579   85.8378   12.7626 C.ar    1  UNL1        0.1453
     24 C          62.9404   84.4212   13.2553 C.ar    1  UNL1        0.0375
     25 C          63.6638   84.0572   14.5178 C.ar    1  UNL1        0.0031
     26 C          64.4048   85.1099   15.2878 C.ar    1  UNL1        0.0002
     27 C          64.4223   86.5266   14.7952 C.ar    1  UNL1        0.0031
     28 C          63.6989   86.8905   13.5326 C.ar    1  UNL1        0.0375
     29 C          63.5402   88.1936   12.8067 C.ar    1  UNL1        0.0372
     30 C          64.0513   89.5734   13.0979 C.ar    1  UNL1        0.0005
@<TRIPOS>BOND
     1    15    16    1
     2    16     8    1
     3     8     9   ar
     4     9    10   ar
     5    10    11   ar
     6    11    12   ar
     7    12    13    1
     8    12    14   ar
     9     1    14    1
    10     1     2    1
    11     2     3    1
    12     3     4    1
    13     3     5    1
    14     5     6    2
    15     5     7   am
    16     7    17    1
    17    17    18    1
    18    18    19   ar
    19    19    20   ar
    20    20    21   ar
    21    21    22   ar
    22    22    23   ar
    23    23    24   ar
    24    24    25   ar
    25    25    26   ar
    26    26    27   ar
    27    27    28   ar
    28    28    29   ar
    29    29    30   ar
    30    14     8   ar
    31     7     1    1
    32    30    18   ar
    33    29    21   ar
    34    28    23   ar
@<TRIPOS>MOLECULE
*****
 30 34 0 0 0
SMALL
GASTEIGER

@<TRIPOS>ATOM
      1 C          61.2964   86.7115    9.6082 C.3     1  UNL1        0.1066
      2 C          60.3609   86.7352    8.4359 C.3     1  UNL1        0.0694
      3 C          59.6795   88.0712    8.4133 C.3     1  UNL1        0.2385
      4 F          58.6623   88.5254    7.4088 F       1  UNL1       -0.2273
      5 C          60.1938   88.8734    9.5717 C.2     1  UNL1        0.2588
      6 O          59.7813   90.2706    9.9290 O.2     1  UNL1       -0.2719
      7 N          61.1931   88.0332   10.3102 N.am    1  UNL1       -0.2708
      8 C          63.0555   84.9032    8.9872 C.ar    1  UNL1        0.1384
      9 C          63.9391   83.7590    9.3872 C.ar    1  UNL1        0.0368
     10 C          63.9472   83.2790   10.8083 C.ar    1  UNL1        0.0054
     11 C          63.0717   83.9431   11.8293 C.ar    1  UNL1        0.0296
     12 C          62.1881   85.0873   11.4293 C.ar    1  UNL1        0.1406
     13 F          61.3126   85.7514   12.4503 F       1  UNL1       -0.2043
     14 C          62.1799   85.5674   10.0082 C.ar    1  UNL1        0.0572
     15 C          62.4619   84.5218    6.4868 C.3     1  UNL1        0.2525
     16 O          63.0473   85.3833    7.5662 O.3     1  UNL1       -0.4716
     17 C          61.9554   88.4425   11.5355 C.3     1  UNL1        0.1205
     18 C          62.8415   89.6523   11.4982 C.ar    1  UNL1       -0.0021
     19 C          62.9421   90.4699   10.2447 C.ar    1  UNL1        0.0005
     20 C          63.8283   91.6796   10.2075 C.ar    1  UNL1        0.0372
     21 C          64.6139   92.0716   11.4237 C.ar    1  UNL1        0.1453
     22 O          65.5629   93.2037   11.6838 O.2     1  UNL1       -0.4535
     23 C          66.0488   93.0857   13.0980 C.ar    1  UNL1        0.1453
     24 C          66.9981   93.9199   13.9060 C.ar    1  UNL1        0.0375
     25 C          67.2988   93.5490   15.3279 C.ar    1  UNL1        0.0031
     26 C          66.6501   92.3439   15.9419 C.ar    1  UNL1        0.0002
     27 C          65.7007   91.5098   15.1340 C.ar    1  UNL1        0.0031
     28 C          65.4001   91.8807   13.7120 C.ar    1  UNL1        0.0375
     29 C          64.5133   91.2539   12.6772 C.ar    1  UNL1        0.0372
     30 C          63.6271   90.0442   12.7145 C.ar    1  UNL1        0.0005
@<TRIPOS>BOND
     1    15    16    1
     2    16     8    1
     3     8     9   ar
     4     9    10   ar
     5    10    11   ar
     6    11    12   ar
     7    12    13    1
     8    12    14   ar
     9     1    14    1
    10     1     2    1
    11     2     3    1
    12     3     4    1
    13     3     5    1
    14     5     6    2
    15     5     7   am
    16     7    17    1
    17    17    18    1
    18    18    19   ar
    19    19    20   ar
    20    20    21   ar
    21    21    22   ar
    22    22    23   ar
    23    23    24   ar
    24    24    25   ar
    25    25    26   ar
    26    26    27   ar
    27    27    28   ar
    28    28    29   ar
    29    29    30   ar
    30    14     8   ar
    31     7     1    1
    32    30    18   ar
    33    29    21   ar
    34    28    23   ar
@<TRIPOS>MOLECULE
*****
 30 34 0 0 0
SMALL
GASTEIGER

@<TRIPOS>ATOM
      1 C          64.6093   90.8795   13.4077 C.3     1  UNL1        0.1066
      2 C          63.7984   91.4187   12.2668 C.3     1  UNL1        0.0694
      3 C          62.9748   90.2948   11.7114 C.3     1  UNL1        0.2385
      4 F          62.0175   90.3883   10.5605 F       1  UNL1       -0.2273
      5 C          63.2767   89.0608   12.5091 C.2     1  UNL1        0.2588
      6 O          62.6742   87.7039   12.2960 O.2     1  UNL1       -0.2719
      7 N          64.2868   89.4222   13.5575 N.am    1  UNL1       -0.2708
      8 C          66.8439   92.1829   13.6484 C.ar    1  UNL1        0.1384
      9 C          67.8080   92.9638   14.4915 C.ar    1  UNL1        0.0368
     10 C          67.5015   93.2221   15.9369 C.ar    1  UNL1        0.0054
     11 C          66.2310   92.6996   16.5393 C.ar    1  UNL1        0.0296
     12 C          65.2670   91.9187   15.6962 C.ar    1  UNL1        0.1406
     13 F          63.9965   91.3962   16.2986 F       1  UNL1       -0.2043
     14 C          65.5733   91.6603   14.2507 C.ar    1  UNL1        0.0572
     15 C          66.8170   92.9590   11.1691 C.3     1  UNL1        0.2525
     16 O          67.1503   91.9245   12.2029 O.3     1  UNL1       -0.4716
     17 C          64.8718   88.4900   14.5767 C.3     1  UNL1        0.1205
     18 C          64.1921   87.1875   14.8793 C.ar    1  UNL1       -0.0021
     19 C          63.5222   86.9815   16.2056 C.ar    1  UNL1        0.0005
     20 C          62.8426   85.6790   16.5082 C.ar    1  UNL1        0.0372
     21 C          62.8327   84.5825   15.4846 C.ar    1  UNL1        0.1453
     22 O          62.2472   83.2017   15.4985 O.2     1  UNL1       -0.4535
     23 C          62.5551   82.5542   14.1809 C.ar    1  UNL1        0.1453
     24 C          62.2292   81.1984   13.6283 C.ar    1  UNL1        0.0375
     25 C          62.6792   80.8233   12.2475 C.ar    1  UNL1        0.0031
     26 C          63.4551   81.8041   11.4192 C.ar    1  UNL1        0.0002
     27 C          63.7810   83.1600   11.9718 C.ar    1  UNL1        0.0031
     28 C          63.3310   83.5350   13.3526 C.ar    1  UNL1        0.0375
     29 C          63.5026   84.7886   14.1583 C.ar    1  UNL1        0.0372
     30 C          64.1822   86.0910   13.8557 C.ar    1  UNL1        0.0005
@<TRIPOS>BOND
     1    15    16    1
     2    16     8    1
     3     8     9   ar
     4     9    10   ar
     5    10    11   ar
     6    11    12   ar
     7    12    13    1
     8    12    14   ar
     9     1    14    1
    10     1     2    1
    11     2     3    1
    12     3     4    1
    13     3     5    1
    14     5     6    2
    15     5     7   am
    16     7    17    1
    17    17    18    1
    18    18    19   ar
    19    19    20   ar
    20    20    21   ar
    21    21    22   ar
    22    22    23   ar
    23    23    24   ar
    24    24    25   ar
    25    25    26   ar
    26    26    27   ar
    27    27    28   ar
    28    28    29   ar
    29    29    30   ar
    30    14     8   ar
    31     7     1    1
    32    30    18   ar
    33    29    21   ar
    34    28    23   ar
@<TRIPOS>MOLECULE
*****
 30 34 0 0 0
SMALL
GASTEIGER

@<TRIPOS>ATOM
      1 C          61.5756   86.1397   10.1101 C.3     1  UNL1        0.1066
      2 C          60.5279   86.0795    9.0382 C.3     1  UNL1        0.0694
      3 C          59.7652   87.3708    9.0623 C.3     1  UNL1        0.2385
      4 F          58.6262   87.7391    8.1584 F       1  UNL1       -0.2273
      5 C          60.3415   88.2293   10.1491 C.2     1  UNL1        0.2588
      6 O          59.8800   89.6067   10.5227 O.2     1  UNL1       -0.2719
      7 N          61.4603   87.4684   10.7966 N.am    1  UNL1       -0.2708
      8 C          62.7282   84.5986   11.8554 C.ar    1  UNL1        0.1384
      9 C          63.7174   83.5196   12.1832 C.ar    1  UNL1        0.0368
     10 C          64.5431   82.9030   11.0933 C.ar    1  UNL1        0.0054
     11 C          64.3796   83.3652    9.6757 C.ar    1  UNL1        0.0296
     12 C          63.3904   84.4441    9.3479 C.ar    1  UNL1        0.1406
     13 F          63.2270   84.9063    7.9303 F       1  UNL1       -0.2043
     14 C          62.5647   85.0608   10.4378 C.ar    1  UNL1        0.0572
     15 C          62.1239   84.8126   14.3731 C.3     1  UNL1        0.2525
     16 O          61.9025   85.2153   12.9453 O.3     1  UNL1       -0.4716
     17 C          62.3140   87.9514   11.9314 C.3     1  UNL1        0.1205
     18 C          63.0414   89.2586   11.8193 C.ar    1  UNL1       -0.0021
     19 C          62.9204   90.0794   10.5697 C.ar    1  UNL1        0.0005
     20 C          63.6477   91.3865   10.4576 C.ar    1  UNL1        0.0372
     21 C          64.4959   91.8727   11.5952 C.ar    1  UNL1        0.1453
     22 O          65.3237   93.1111   11.7722 O.2     1  UNL1       -0.4535
     23 C          65.9562   93.0556   13.1312 C.ar    1  UNL1        0.1453
     24 C          66.8734   93.9995   13.8506 C.ar    1  UNL1        0.0375
     25 C          67.3539   93.6707   15.2330 C.ar    1  UNL1        0.0031
     26 C          66.9171   92.3981   15.8959 C.ar    1  UNL1        0.0002
     27 C          65.9998   91.4542   15.1765 C.ar    1  UNL1        0.0031
     28 C          65.5194   91.7829   13.7941 C.ar    1  UNL1        0.0375
     29 C          64.6169   91.0519   12.8448 C.ar    1  UNL1        0.0372
     30 C          63.8896   89.7448   12.9569 C.ar    1  UNL1        0.0005
@<TRIPOS>BOND
     1    15    16    1
     2    16     8    1
     3     8     9   ar
     4     9    10   ar
     5    10    11   ar
     6    11    12   ar
     7    12    13    1
     8    12    14   ar
     9     1    14    1
    10     1     2    1
    11     2     3    1
    12     3     4    1
    13     3     5    1
    14     5     6    2
    15     5     7   am
    16     7    17    1
    17    17    18    1
    18    18    19   ar
    19    19    20   ar
    20    20    21   ar
    21    21    22   ar
    22    22    23   ar
    23    23    24   ar
    24    24    25   ar
    25    25    26   ar
    26    26    27   ar
    27    27    28   ar
    28    28    29   ar
    29    29    30   ar
    30    14     8   ar
    31     7     1    1
    32    30    18   ar
    33    29    21   ar
    34    28    23   ar
@<TRIPOS>MOLECULE
*****
 30 34 0 0 0
SMALL
GASTEIGER

@<TRIPOS>ATOM
      1 C          63.1238   85.0301   12.4587 C.3     1  UNL1        0.1066
      2 C          63.7347   83.8813   11.7123 C.3     1  UNL1        0.0694
      3 C          63.4717   84.0861   10.2499 C.3     1  UNL1        0.2385
      4 F          63.9059   83.1754    9.1399 F       1  UNL1       -0.2273
      5 C          62.6983   85.3617   10.0922 C.2     1  UNL1        0.2588
      6 O          62.2233   85.9504    8.7970 O.2     1  UNL1       -0.2719
      7 N          62.4833   85.9451   11.4573 N.am    1  UNL1       -0.2708
      8 C          62.4042   84.2843   14.8411 C.ar    1  UNL1        0.1384
      9 C          62.4294   84.4833   16.3276 C.ar    1  UNL1        0.0368
     10 C          63.1994   85.6271   16.9182 C.ar    1  UNL1        0.0054
     11 C          63.9442   86.5719   16.0223 C.ar    1  UNL1        0.0296
     12 C          63.9190   86.3729   14.5357 C.ar    1  UNL1        0.1406
     13 F          64.6638   87.3177   13.6398 F       1  UNL1       -0.2043
     14 C          63.1490   85.2291   13.9451 C.ar    1  UNL1        0.0572
     15 C          62.2082   81.7551   14.2806 C.3     1  UNL1        0.2525
     16 O          61.6342   83.1406   14.2505 O.3     1  UNL1       -0.4716
     17 C          61.7555   87.2197   11.7668 C.3     1  UNL1        0.1205
     18 C          62.4124   88.5419   11.5011 C.ar    1  UNL1       -0.0021
     19 C          62.1879   89.2416   10.1935 C.ar    1  UNL1        0.0005
     20 C          62.8447   90.5637    9.9279 C.ar    1  UNL1        0.0372
     21 C          63.7260   91.1861   10.9700 C.ar    1  UNL1        0.1453
     22 O          64.5012   92.4701   10.9923 O.2     1  UNL1       -0.4535
     23 C          65.2048   92.5639   12.3138 C.ar    1  UNL1        0.1453
     24 C          66.1114   93.6073   12.8963 C.ar    1  UNL1        0.0375
     25 C          66.6776   93.4246   14.2732 C.ar    1  UNL1        0.0031
     26 C          66.3373   92.1986   15.0676 C.ar    1  UNL1        0.0002
     27 C          65.4307   91.1553   14.4851 C.ar    1  UNL1        0.0031
     28 C          64.8644   91.3379   13.1082 C.ar    1  UNL1        0.0375
     29 C          63.9505   90.4864   12.2777 C.ar    1  UNL1        0.0372
     30 C          63.2937   89.1643   12.5432 C.ar    1  UNL1        0.0005
@<TRIPOS>BOND
     1    15    16    1
     2    16     8    1
     3     8     9   ar
     4     9    10   ar
     5    10    11   ar
     6    11    12   ar
     7    12    13    1
     8    12    14   ar
     9     1    14    1
    10     1     2    1
    11     2     3    1
    12     3     4    1
    13     3     5    1
    14     5     6    2
    15     5     7   am
    16     7    17    1
    17    17    18    1
    18    18    19   ar
    19    19    20   ar
    20    20    21   ar
    21    21    22   ar
    22    22    23   ar
    23    23    24   ar
    24    24    25   ar
    25    25    26   ar
    26    26    27   ar
    27    27    28   ar
    28    28    29   ar
    29    29    30   ar
    30    14     8   ar
    31     7     1    1
    32    30    18   ar
    33    29    21   ar
    34    28    23   ar
@<TRIPOS>MOLECULE
*****
 30 34 0 0 0
SMALL
GASTEIGER

@<TRIPOS>ATOM
      1 C          62.5103   86.0465   11.6952 C.3     1  UNL1        0.1066
      2 C          62.7411   84.6953   12.3045 C.3     1  UNL1        0.0694
      3 C          63.5648   84.8804   13.5443 C.3     1  UNL1        0.2385
      4 F          64.0287   83.7912   14.4654 F       1  UNL1       -0.2273
      5 C          63.8431   86.3459   13.7014 C.2     1  UNL1        0.2588
      6 O          64.6342   86.9796   14.8071 O.2     1  UNL1       -0.2719
      7 N          63.1915   87.0666   12.5586 N.am    1  UNL1       -0.2708
      8 C          60.5277   87.2173   10.4918 C.ar    1  UNL1        0.1384
      9 C          59.7520   87.4989    9.2391 C.ar    1  UNL1        0.0368
     10 C          60.1834   86.8912    7.9374 C.ar    1  UNL1        0.0054
     11 C          61.3904   86.0019    7.8882 C.ar    1  UNL1        0.0296
     12 C          62.1661   85.7203    9.1409 C.ar    1  UNL1        0.1406
     13 F          63.3730   84.8311    9.0917 F       1  UNL1       -0.2043
     14 C          61.7347   86.3280   10.4427 C.ar    1  UNL1        0.0572
     15 C          59.6675   89.2614   11.8451 C.3     1  UNL1        0.2525
     16 O          60.0964   87.8250   11.7935 O.3     1  UNL1       -0.4716
     17 C          63.2165   88.5474   12.3209 C.3     1  UNL1        0.1205
     18 C          63.6756   89.4739   13.4077 C.ar    1  UNL1       -0.0021
     19 C          62.7636   89.7949   14.5545 C.ar    1  UNL1        0.0005
     20 C          63.2228   90.7213   15.6412 C.ar    1  UNL1        0.0372
     21 C          64.5939   91.3267   15.5811 C.ar    1  UNL1        0.1453
     22 O          65.3170   92.2670   16.4991 O.2     1  UNL1       -0.4535
     23 C          66.6759   92.5272   15.9197 C.ar    1  UNL1        0.1453
     24 C          67.8221   93.3731   16.3893 C.ar    1  UNL1        0.0375
     25 C          69.0850   93.4396   15.5827 C.ar    1  UNL1        0.0031
     26 C          69.2017   92.6600   14.3065 C.ar    1  UNL1        0.0002
     27 C          68.0555   91.8140   13.8369 C.ar    1  UNL1        0.0031
     28 C          66.7926   91.7476   14.6435 C.ar    1  UNL1        0.0375
     29 C          65.5058   91.0057   14.4343 C.ar    1  UNL1        0.0372
     30 C          65.0467   90.0793   13.3476 C.ar    1  UNL1        0.0005
@<TRIPOS>BOND
     1    15    16    1
     2    16     8    1
     3     8     9   ar
     4     9    10   ar
     5    10    11   ar
     6    11    12   ar
     7    12    13    1
     8    12    14   ar
     9     1    14    1
    10     1     2    1
    11     2     3    1
    12     3     4    1
    13     3     5    1
    14     5     6    2
    15     5     7   am
    16     7    17    1
    17    17    18    1
    18    18    19   ar
    19    19    20   ar
    20    20    21   ar
    21    21    22   ar
    22    22    23   ar
    23    23    24   ar
    24    24    25   ar
    25    25    26   ar
    26    26    27   ar
    27    27    28   ar
    28    28    29   ar
    29    29    30   ar
    30    14     8   ar
    31     7     1    1
    32    30    18   ar
    33    29    21   ar
    34    28    23   ar
@<TRIPOS>MOLECULE
*****
 30 34 0 0 0
SMALL
GASTEIGER

@<TRIPOS>ATOM
      1 C          66.2388   93.6488   12.4710 C.3     1  UNL1        0.1066
      2 C          66.9543   93.6691   13.7893 C.3     1  UNL1        0.0694
      3 C          66.2292   92.7477   14.7246 C.3     1  UNL1        0.2385
      4 F          66.6023   92.4656   16.1499 F       1  UNL1       -0.2273
      5 C          65.0654   92.1578   13.9846 C.2     1  UNL1        0.2588
      6 O          64.0705   91.1823   14.5398 O.2     1  UNL1       -0.2719
      7 N          65.0714   92.7147   12.5918 N.am    1  UNL1       -0.2708
      8 C          67.1843   93.7140   10.0520 C.ar    1  UNL1        0.1384
      9 C          67.5687   94.4912    8.8280 C.ar    1  UNL1        0.0368
     10 C          67.3919   95.9804    8.7991 C.ar    1  UNL1        0.0054
     11 C          66.8308   96.6925    9.9941 C.ar    1  UNL1        0.0296
     12 C          66.4465   95.9153   11.2182 C.ar    1  UNL1        0.1406
     13 F          65.8854   96.6273   12.4132 F       1  UNL1       -0.2043
     14 C          66.6232   94.4260   11.2471 C.ar    1  UNL1        0.0572
     15 C          68.3436   91.5680    9.1573 C.3     1  UNL1        0.2525
     16 O          67.3610   92.2247   10.0809 O.3     1  UNL1       -0.4716
     17 C          64.0834   92.3938   11.5098 C.3     1  UNL1        0.1205
     18 C          63.4980   91.0161   11.4130 C.ar    1  UNL1       -0.0021
     19 C          63.9047   89.9578   12.3951 C.ar    1  UNL1        0.0005
     20 C          63.3193   88.5801   12.2984 C.ar    1  UNL1        0.0372
     21 C          62.3272   88.2608   11.2195 C.ar    1  UNL1        0.1453
     22 O          61.5867   87.0020   10.8775 O.2     1  UNL1       -0.4535
     23 C          60.7224   87.2823    9.6840 C.ar    1  UNL1        0.1453
     24 C          59.7742   86.4186    8.9064 C.ar    1  UNL1        0.0375
     25 C          59.0322   86.9869    7.7332 C.ar    1  UNL1        0.0031
     26 C          59.2385   88.4191    7.3376 C.ar    1  UNL1        0.0002
     27 C          60.1868   89.2828    8.1153 C.ar    1  UNL1        0.0031
     28 C          60.9287   88.7144    9.2885 C.ar    1  UNL1        0.0375
     29 C          61.9205   89.3191   10.2374 C.ar    1  UNL1        0.0372
     30 C          62.5059   90.6968   10.3342 C.ar    1  UNL1        0.0005
@<TRIPOS>BOND
     1    15    16    1
     2    16     8    1
     3     8     9   ar
     4     9    10   ar
     5    10    11   ar
     6    11    12   ar
     7    12    13    1
     8    12    14   ar
     9     1    14    1
    10     1     2    1
    11     2     3    1
    12     3     4    1
    13     3     5    1
    14     5     6    2
    15     5     7   am
    16     7    17    1
    17    17    18    1
    18    18    19   ar
    19    19    20   ar
    20    20    21   ar
    21    21    22   ar
    22    22    23   ar
    23    23    24   ar
    24    24    25   ar
    25    25    26   ar
    26    26    27   ar
    27    27    28   ar
    28    28    29   ar
    29    29    30   ar
    30    14     8   ar
    31     7     1    1
    32    30    18   ar
    33    29    21   ar
    34    28    23   ar
@<TRIPOS>MOLECULE
*****
 30 34 0 0 0
SMALL
GASTEIGER

@<TRIPOS>ATOM
      1 C          62.0552   86.3496   10.9423 C.3     1  UNL1        0.1066
      2 C          60.9864   86.7206    9.9574 C.3     1  UNL1        0.0694
      3 C          60.5887   88.1431   10.2186 C.3     1  UNL1        0.2385
      4 F          59.5503   88.9208    9.4656 F       1  UNL1       -0.2273
      5 C          61.4117   88.6514   11.3650 C.2     1  UNL1        0.2588
      6 O          61.3409   90.0266   11.9597 O.2     1  UNL1       -0.2719
      7 N          62.3180   87.5430   11.8123 N.am    1  UNL1       -0.2708
      8 C          62.7253   84.2607   12.3343 C.ar    1  UNL1        0.1384
      9 C          63.4108   82.9301   12.4322 C.ar    1  UNL1        0.0368
     10 C          64.1118   82.3579   11.2359 C.ar    1  UNL1        0.0054
     11 C          64.1272   83.1162    9.9417 C.ar    1  UNL1        0.0296
     12 C          63.4417   84.4468    9.8439 C.ar    1  UNL1        0.1406
     13 F          63.4571   85.2051    8.5498 F       1  UNL1       -0.2043
     14 C          62.7407   85.0191   11.0402 C.ar    1  UNL1        0.0572
     15 C          62.3427   84.3192   14.9034 C.3     1  UNL1        0.2525
     16 O          62.0243   84.8331   13.5306 O.3     1  UNL1       -0.4716
     17 C          63.3126   87.6153   12.9328 C.3     1  UNL1        0.1205
     18 C          63.8757   88.9411   13.3516 C.ar    1  UNL1       -0.0021
     19 C          63.9916   89.2803   14.8081 C.ar    1  UNL1        0.0005
     20 C          64.5546   90.6061   15.2269 C.ar    1  UNL1        0.0372
     21 C          65.0018   91.5925   14.1891 C.ar    1  UNL1        0.1453
     22 O          65.5923   92.9670   14.2992 O.2     1  UNL1       -0.4535
     23 C          65.8414   93.4772   12.9108 C.ar    1  UNL1        0.1453
     24 C          66.4093   94.7693   12.4032 C.ar    1  UNL1        0.0375
     25 C          66.5406   95.0023   10.9272 C.ar    1  UNL1        0.0031
     26 C          66.1040   93.9432    9.9590 C.ar    1  UNL1        0.0002
     27 C          65.5361   92.6510   10.4666 C.ar    1  UNL1        0.0031
     28 C          65.4048   92.4180   11.9425 C.ar    1  UNL1        0.0375
     29 C          64.8859   91.2533   12.7326 C.ar    1  UNL1        0.0372
     30 C          64.3229   89.9275   12.3138 C.ar    1  UNL1        0.0005
@<TRIPOS>BOND
     1    15    16    1
     2    16     8    1
     3     8     9   ar
     4     9    10   ar
     5    10    11   ar
     6    11    12   ar
     7    12    13    1
     8    12    14   ar
     9     1    14    1
    10     1     2    1
    11     2     3    1
    12     3     4    1
    13     3     5    1
    14     5     6    2
    15     5     7   am
    16     7    17    1
    17    17    18    1
    18    18    19   ar
    19    19    20   ar
    20    20    21   ar
    21    21    22   ar
    22    22    23   ar
    23    23    24   ar
    24    24    25   ar
    25    25    26   ar
    26    26    27   ar
    27    27    28   ar
    28    28    29   ar
    29    29    30   ar
    30    14     8   ar
    31     7     1    1
    32    30    18   ar
    33    29    21   ar
    34    28    23   ar
