@<TRIPOS>MOLECULE
*****
 39 44 0 0 0
SMALL
GASTEIGER

@<TRIPOS>ATOM
      1 C          59.8575   88.9445    7.3919 C.ar    1  UNL1        0.0569
      2 C          59.1744   87.6092    7.4132 C.ar    1  UNL1        0.1237
      3 N          59.5266   86.9289    8.7028 N.ar    1  UNL1       -0.1598
      4 N          60.4274   87.8437    9.4785 N.ar    1  UNL1       -0.1821
      5 C          61.0878   87.7033   10.8180 C.ar    1  UNL1        0.2217
      6 N          61.9528   88.8086   11.3473 N.ar    1  UNL1       -0.1811
      7 C          62.1573   90.0543   10.5371 C.ar    1  UNL1        0.2206
      8 N          61.4968   90.1947    9.1976 N.ar    1  UNL1       -0.1945
      9 C          60.6319   89.0894    8.6684 C.ar    1  UNL1        0.1709
     10 C          62.1623   91.6718    3.6171 C.3     1  UNL1        0.0312
     11 C          60.9323   91.3208    4.4005 C.ar    1  UNL1       -0.0175
     12 C          61.0099   90.3082    5.5045 C.ar    1  UNL1       -0.0040
     13 C          59.7799   89.9571    6.2880 C.ar    1  UNL1        0.0042
     14 C          58.4724   90.6186    5.9676 C.ar    1  UNL1        0.0003
     15 C          58.3948   91.6312    4.8637 C.ar    1  UNL1        0.0042
     16 C          59.6248   91.9823    4.0802 C.ar    1  UNL1        0.0494
     17 C          59.5472   92.9949    2.9762 C.2     1  UNL1        0.2455
     18 O          59.9503   94.4167    3.2331 O.2     1  UNL1       -0.2702
     19 N          59.0664   92.5857    1.6156 N.am    1  UNL1       -0.3025
     20 H          58.8019   91.6525    1.4470 H       1  UNL1        0.1497
     21 C          58.9888   93.5983    0.5117 C.3     1  UNL1        0.0720
     22 C          59.6248   94.6900   -0.2969 C.3     1  UNL1        0.0213
     23 C          58.2183   94.2606   -0.5918 C.3     1  UNL1        0.0213
     24 N          60.8833   86.4575   11.6281 N.pl3   1  UNL1       -0.3029
     25 H          60.1187   86.3914   12.2448 H       1  UNL1        0.1496
     26 C          61.8438   85.3126   11.4988 C.3     1  UNL1        0.0897
     27 C          62.6964   84.9134   12.6666 C.3     1  UNL1        0.0246
     28 C          62.7394   83.4807   13.1087 C.3     1  UNL1        0.0338
     29 C          63.5921   83.0815   14.2765 C.3     1  UNL1        0.1422
     30 O          64.4016   84.1149   15.0021 O.3     1  UNL1       -0.3538
     31 C          64.3586   85.5477   14.5599 C.3     1  UNL1        0.1422
     32 C          63.5060   85.9469   13.3922 C.3     1  UNL1        0.0338
     33 N          63.0222   91.1596   11.0664 N.pl3   1  UNL1       -0.3045
     34 H          63.0513   92.0272   10.6020 H       1  UNL1        0.1496
     35 C          63.8428   90.9431   12.3032 C.3     1  UNL1        0.0718
     36 C          64.9218   91.8504   12.8155 C.3     1  UNL1        0.0196
     37 C          65.4744   91.2493   14.0738 C.3     1  UNL1        0.0017
     38 C          64.7368   89.9704   14.3392 C.3     1  UNL1        0.0017
     39 C          63.7284   89.7812   13.2450 C.3     1  UNL1        0.0196
@<TRIPOS>BOND
     1    10    11    1
     2    11    12   ar
     3    12    13   ar
     4    13     1    1
     5     1     2   ar
     6     2     3   ar
     7     3     4   ar
     8     4     5   ar
     9     5    24    1
    10    24    26    1
    11    26    27    1
    12    27    28    1
    13    28    29    1
    14    29    30    1
    15    30    31    1
    16    31    32    1
    17     5     6   ar
    18     6     7   ar
    19     7    33    1
    20    33    35    1
    21    35    36    1
    22    36    37    1
    23    37    38    1
    24    38    39    1
    25     7     8   ar
    26     8     9   ar
    27    13    14   ar
    28    14    15   ar
    29    15    16   ar
    30    16    17    1
    31    17    18    2
    32    17    19   am
    33    19    21    1
    34    21    22    1
    35    22    23    1
    36    16    11   ar
    37    23    21    1
    38     9     1   ar
    39     9     4   ar
    40    32    27    1
    41    39    35    1
    42    24    25    1
    43    33    34    1
    44    19    20    1
@<TRIPOS>MOLECULE
*****
 39 44 0 0 0
SMALL
GASTEIGER

@<TRIPOS>ATOM
      1 C          61.6803   89.9167   10.6087 C.ar    1  UNL1        0.0569
      2 C          60.4690   90.6838   10.1679 C.ar    1  UNL1        0.1237
      3 N          59.7399   89.8551    9.1522 N.ar    1  UNL1       -0.1598
      4 N          60.5005   88.5759    8.9653 N.ar    1  UNL1       -0.1821
      5 C          60.2560   87.3813    8.0918 C.ar    1  UNL1        0.2217
      6 N          61.2109   86.2247    8.1184 N.ar    1  UNL1       -0.1811
      7 C          62.4101   86.2627    9.0185 C.ar    1  UNL1        0.2206
      8 N          62.6546   87.4574    9.8921 N.ar    1  UNL1       -0.1945
      9 C          61.6998   88.6139    9.8655 C.ar    1  UNL1        0.1709
     10 C          63.8261   89.5300   15.3253 C.3     1  UNL1        0.0312
     11 C          63.7671   90.1790   13.9743 C.ar    1  UNL1       -0.0175
     12 C          62.7532   89.7234   12.9670 C.ar    1  UNL1       -0.0040
     13 C          62.6941   90.3724   11.6159 C.ar    1  UNL1        0.0042
     14 C          63.6488   91.4770   11.2721 C.ar    1  UNL1        0.0003
     15 C          64.6627   91.9326   12.2795 C.ar    1  UNL1        0.0042
     16 C          64.7218   91.2837   13.6305 C.ar    1  UNL1        0.0494
     17 C          65.7356   91.7393   14.6377 C.2     1  UNL1        0.2455
     18 O          65.2879   92.2371   15.9799 O.2     1  UNL1       -0.2702
     19 N          67.1971   91.6971   14.3027 N.am    1  UNL1       -0.3025
     20 H          67.4909   91.3704   13.4217 H       1  UNL1        0.1497
     21 C          68.2110   92.1528   15.3099 C.3     1  UNL1        0.0720
     22 C          68.9819   91.9176   16.5749 C.3     1  UNL1        0.0213
     23 C          69.1961   93.1773   15.7894 C.3     1  UNL1        0.0213
     24 N          59.0568   87.3432    7.1916 N.pl3   1  UNL1       -0.3029
     25 H          58.8379   86.5201    6.6978 H       1  UNL1        0.1496
     26 C          58.1910   88.5593    7.0438 C.3     1  UNL1        0.0897
     27 C          58.6232   89.6834    6.1496 C.3     1  UNL1        0.0246
     28 C          57.6039   90.6309    5.5899 C.3     1  UNL1        0.0338
     29 C          58.0361   91.7550    4.6958 C.3     1  UNL1        0.1422
     30 O          59.4876   91.9317    4.3613 O.3     1  UNL1       -0.3538
     31 C          60.5070   90.9842    4.9210 C.3     1  UNL1        0.1422
     32 C          60.0748   89.8601    5.8152 C.3     1  UNL1        0.0338
     33 N          63.3649   85.1062    9.0452 N.pl3   1  UNL1       -0.3045
     34 H          63.9815   84.9595    8.2918 H       1  UNL1        0.1496
     35 C          63.3803   84.1732   10.2196 C.3     1  UNL1        0.0718
     36 C          64.1717   82.9035   10.3267 C.3     1  UNL1        0.0196
     37 C          63.8876   82.2917   11.6664 C.3     1  UNL1        0.0017
     38 C          62.9206   83.1834   12.3875 C.3     1  UNL1        0.0017
     39 C          62.6071   84.3462   11.4933 C.3     1  UNL1        0.0196
@<TRIPOS>BOND
     1    10    11    1
     2    11    12   ar
     3    12    13   ar
     4    13     1    1
     5     1     2   ar
     6     2     3   ar
     7     3     4   ar
     8     4     5   ar
     9     5    24    1
    10    24    26    1
    11    26    27    1
    12    27    28    1
    13    28    29    1
    14    29    30    1
    15    30    31    1
    16    31    32    1
    17     5     6   ar
    18     6     7   ar
    19     7    33    1
    20    33    35    1
    21    35    36    1
    22    36    37    1
    23    37    38    1
    24    38    39    1
    25     7     8   ar
    26     8     9   ar
    27    13    14   ar
    28    14    15   ar
    29    15    16   ar
    30    16    17    1
    31    17    18    2
    32    17    19   am
    33    19    21    1
    34    21    22    1
    35    22    23    1
    36    16    11   ar
    37    23    21    1
    38     9     1   ar
    39     9     4   ar
    40    32    27    1
    41    39    35    1
    42    24    25    1
    43    33    34    1
    44    19    20    1
@<TRIPOS>MOLECULE
*****
 39 44 0 0 0
SMALL
GASTEIGER

@<TRIPOS>ATOM
      1 C          64.2394   88.3279   13.9120 C.ar    1  UNL1        0.0569
      2 C          65.1382   89.0401   14.8790 C.ar    1  UNL1        0.1237
      3 N          65.2891   90.4580   14.4133 N.ar    1  UNL1       -0.1598
      4 N          64.4836   90.6221   13.1586 N.ar    1  UNL1       -0.1821
      5 C          64.2571   91.8002   12.2583 C.ar    1  UNL1        0.2217
      6 N          63.3817   91.6618   11.0480 N.ar    1  UNL1       -0.1811
      7 C          62.7329   90.3454   10.7382 C.ar    1  UNL1        0.2206
      8 N          62.9595   89.1672   11.6386 N.ar    1  UNL1       -0.1945
      9 C          63.8348   89.3056   12.8488 C.ar    1  UNL1        0.1709
     10 C          62.5218   84.0031   11.5999 C.3     1  UNL1        0.0312
     11 C          62.9601   84.7279   12.8379 C.ar    1  UNL1       -0.0175
     12 C          63.3806   86.1655   12.7561 C.ar    1  UNL1       -0.0040
     13 C          63.8189   86.8904   13.9939 C.ar    1  UNL1        0.0042
     14 C          63.8368   86.1777   15.3137 C.ar    1  UNL1        0.0003
     15 C          63.4163   84.7401   15.3955 C.ar    1  UNL1        0.0042
     16 C          62.9780   84.0153   14.1576 C.ar    1  UNL1        0.0494
     17 C          62.5575   82.5777   14.2395 C.2     1  UNL1        0.2455
     18 O          63.5801   81.5107   14.4957 O.2     1  UNL1       -0.2702
     19 N          61.1145   82.2073   14.0652 N.am    1  UNL1       -0.3025
     20 H          60.4433   82.9076   13.8971 H       1  UNL1        0.1497
     21 C          60.6940   80.7697   14.1471 C.3     1  UNL1        0.0720
     22 C          61.0375   79.3106   14.0925 C.3     1  UNL1        0.0213
     23 C          59.6222   79.7389   14.3436 C.3     1  UNL1        0.0213
     24 N          64.9059   93.1166   12.5681 N.pl3   1  UNL1       -0.3029
     25 H          64.3614   93.8689   12.8951 H       1  UNL1        0.1496
     26 C          66.3842   93.2870   12.3796 C.3     1  UNL1        0.0897
     27 C          66.9672   93.3028   10.9976 C.3     1  UNL1        0.0246
     28 C          67.8309   92.1671   10.5348 C.3     1  UNL1        0.0338
     29 C          68.4138   92.1829    9.1528 C.3     1  UNL1        0.1422
     30 O          68.1330   93.3345    8.2335 O.3     1  UNL1       -0.3538
     31 C          67.2693   94.4703    8.6963 C.3     1  UNL1        0.1422
     32 C          66.6864   94.4544   10.0783 C.3     1  UNL1        0.0338
     33 N          61.8576   90.2070    9.5280 N.pl3   1  UNL1       -0.3045
     34 H          61.7206   90.9762    8.9290 H       1  UNL1        0.1496
     35 C          61.1911   88.8966    9.2303 C.3     1  UNL1        0.0718
     36 C          61.7594   87.5358    9.5050 C.3     1  UNL1        0.0196
     37 C          60.7588   86.5151    9.0501 C.3     1  UNL1        0.0017
     38 C          59.5722   87.2450    8.4942 C.3     1  UNL1        0.0017
     39 C          59.8394   88.7168    8.6055 C.3     1  UNL1        0.0196
@<TRIPOS>BOND
     1    10    11    1
     2    11    12   ar
     3    12    13   ar
     4    13     1    1
     5     1     2   ar
     6     2     3   ar
     7     3     4   ar
     8     4     5   ar
     9     5    24    1
    10    24    26    1
    11    26    27    1
    12    27    28    1
    13    28    29    1
    14    29    30    1
    15    30    31    1
    16    31    32    1
    17     5     6   ar
    18     6     7   ar
    19     7    33    1
    20    33    35    1
    21    35    36    1
    22    36    37    1
    23    37    38    1
    24    38    39    1
    25     7     8   ar
    26     8     9   ar
    27    13    14   ar
    28    14    15   ar
    29    15    16   ar
    30    16    17    1
    31    17    18    2
    32    17    19   am
    33    19    21    1
    34    21    22    1
    35    22    23    1
    36    16    11   ar
    37    23    21    1
    38     9     1   ar
    39     9     4   ar
    40    32    27    1
    41    39    35    1
    42    24    25    1
    43    33    34    1
    44    19    20    1
@<TRIPOS>MOLECULE
*****
 39 44 0 0 0
SMALL
GASTEIGER

@<TRIPOS>ATOM
      1 C          63.8234   87.3263   13.4336 C.ar    1  UNL1        0.0569
      2 C          64.5751   87.8121   14.6374 C.ar    1  UNL1        0.1237
      3 N          64.6226   89.3103   14.5806 N.ar    1  UNL1       -0.1598
      4 N          63.9003   89.7504   13.3419 N.ar    1  UNL1       -0.1821
      5 C          63.6285   91.1093   12.7678 C.ar    1  UNL1        0.2217
      6 N          62.8628   91.2420   11.4847 N.ar    1  UNL1       -0.1811
      7 C          62.3689   90.0158   10.7758 C.ar    1  UNL1        0.2206
      8 N          62.6407   88.6569   11.3500 N.ar    1  UNL1       -0.1945
      9 C          63.4064   88.5242   12.6329 C.ar    1  UNL1        0.1709
     10 C          64.2248   82.2670   14.5481 C.3     1  UNL1        0.0312
     11 C          63.7395   83.3643   13.6480 C.ar    1  UNL1       -0.0175
     12 C          64.0241   84.7967   13.9908 C.ar    1  UNL1       -0.0040
     13 C          63.5388   85.8941   13.0907 C.ar    1  UNL1        0.0042
     14 C          62.7689   85.5592   11.8477 C.ar    1  UNL1        0.0003
     15 C          62.4843   84.1269   11.5048 C.ar    1  UNL1        0.0042
     16 C          62.9696   83.0295   12.4049 C.ar    1  UNL1        0.0494
     17 C          62.6849   81.5972   12.0620 C.2     1  UNL1        0.2455
     18 O          61.8752   80.7488   12.9972 O.2     1  UNL1       -0.2702
     19 N          63.2100   81.0134   10.7840 N.am    1  UNL1       -0.3025
     20 H          63.7414   81.5702   10.1702 H       1  UNL1        0.1497
     21 C          62.9254   79.5811   10.4411 C.3     1  UNL1        0.0720
     22 C          62.5368   78.1960   10.8661 C.3     1  UNL1        0.0213
     23 C          62.8209   78.4854    9.4220 C.3     1  UNL1        0.0213
     24 N          64.1224   92.3355   13.4767 N.pl3   1  UNL1       -0.3029
     25 H          63.4860   92.9244   13.9429 H       1  UNL1        0.1496
     26 C          65.5860   92.6642   13.4753 C.3     1  UNL1        0.0897
     27 C          66.2320   93.2045   12.2340 C.3     1  UNL1        0.0246
     28 C          66.9360   92.2756   11.2898 C.3     1  UNL1        0.0338
     29 C          67.5821   92.8159   10.0486 C.3     1  UNL1        0.1422
     30 O          67.5242   94.2850    9.7515 O.3     1  UNL1       -0.3538
     31 C          66.8202   95.2140   10.6958 C.3     1  UNL1        0.1422
     32 C          66.1741   94.6737   11.9370 C.3     1  UNL1        0.0338
     33 N          61.6032   90.1485    9.4929 N.pl3   1  UNL1       -0.3045
     34 H          61.6033   91.0041    9.0058 H       1  UNL1        0.1496
     35 C          60.8373   88.9777    8.9520 C.3     1  UNL1        0.0718
     36 C          59.6924   89.0436    7.9851 C.3     1  UNL1        0.0196
     37 C          59.2294   87.6420    7.7185 C.3     1  UNL1        0.0017
     38 C          60.0881   86.7098    8.5208 C.3     1  UNL1        0.0017
     39 C          61.0818   87.5352    9.2830 C.3     1  UNL1        0.0196
@<TRIPOS>BOND
     1    10    11    1
     2    11    12   ar
     3    12    13   ar
     4    13     1    1
     5     1     2   ar
     6     2     3   ar
     7     3     4   ar
     8     4     5   ar
     9     5    24    1
    10    24    26    1
    11    26    27    1
    12    27    28    1
    13    28    29    1
    14    29    30    1
    15    30    31    1
    16    31    32    1
    17     5     6   ar
    18     6     7   ar
    19     7    33    1
    20    33    35    1
    21    35    36    1
    22    36    37    1
    23    37    38    1
    24    38    39    1
    25     7     8   ar
    26     8     9   ar
    27    13    14   ar
    28    14    15   ar
    29    15    16   ar
    30    16    17    1
    31    17    18    2
    32    17    19   am
    33    19    21    1
    34    21    22    1
    35    22    23    1
    36    16    11   ar
    37    23    21    1
    38     9     1   ar
    39     9     4   ar
    40    32    27    1
    41    39    35    1
    42    24    25    1
    43    33    34    1
    44    19    20    1
@<TRIPOS>MOLECULE
*****
 39 44 0 0 0
SMALL
GASTEIGER

@<TRIPOS>ATOM
      1 C          62.2806   90.1491   11.0630 C.ar    1  UNL1        0.0569
      2 C          61.3289   90.7741   10.0864 C.ar    1  UNL1        0.1237
      3 N          60.4234   89.6967    9.5674 N.ar    1  UNL1       -0.1598
      4 N          60.8154   88.4059   10.2233 N.ar    1  UNL1       -0.1821
      5 C          60.2756   87.0121   10.0982 C.ar    1  UNL1        0.2217
      6 N          60.8835   85.8977   10.8975 N.ar    1  UNL1       -0.1811
      7 C          62.0313   86.1773   11.8218 C.ar    1  UNL1        0.2206
      8 N          62.5711   87.5713   11.9469 N.ar    1  UNL1       -0.1945
      9 C          61.9632   88.6855   11.1476 C.ar    1  UNL1        0.1709
     10 C          66.3124   93.4261   11.1420 C.3     1  UNL1        0.0312
     11 C          65.3760   92.5010   11.8614 C.ar    1  UNL1       -0.0175
     12 C          64.2965   91.7876   11.1026 C.ar    1  UNL1       -0.0040
     13 C          63.3600   90.8625   11.8218 C.ar    1  UNL1        0.0042
     14 C          63.5031   90.6508   13.2999 C.ar    1  UNL1        0.0003
     15 C          64.5827   91.3642   14.0587 C.ar    1  UNL1        0.0042
     16 C          65.5191   92.2893   13.3394 C.ar    1  UNL1        0.0494
     17 C          66.5986   93.0027   14.0982 C.2     1  UNL1        0.2455
     18 O          66.5876   94.4999   14.1887 O.2     1  UNL1       -0.2702
     19 N          67.6889   92.2189   14.7666 N.am    1  UNL1       -0.3025
     20 H          67.6961   91.2362   14.7072 H       1  UNL1        0.1497
     21 C          68.7684   92.9322   15.5254 C.3     1  UNL1        0.0720
     22 C          69.4494   94.2073   15.9259 C.3     1  UNL1        0.0213
     23 C          69.9572   92.8927   16.4393 C.3     1  UNL1        0.0213
     24 N          59.1278   86.7325    9.1738 N.pl3   1  UNL1       -0.3029
     25 H          58.2052   86.7430    9.5174 H       1  UNL1        0.1496
     26 C          59.3856   86.4368    7.7260 C.3     1  UNL1        0.0897
     27 C          60.6392   85.7211    7.3184 C.3     1  UNL1        0.0246
     28 C          60.6327   84.8213    6.1183 C.3     1  UNL1        0.0338
     29 C          61.8863   84.1056    5.7107 C.3     1  UNL1        0.1422
     30 O          63.1465   84.2895    6.5032 O.3     1  UNL1       -0.3538
     31 C          63.1530   85.1893    7.7034 C.3     1  UNL1        0.1422
     32 C          61.8994   85.9051    8.1110 C.3     1  UNL1        0.0338
     33 N          62.6392   85.0631   12.6211 N.pl3   1  UNL1       -0.3045
     34 H          62.8265   85.1900   13.5792 H       1  UNL1        0.1496
     35 C          62.9617   83.7556   11.9605 C.3     1  UNL1        0.0718
     36 C          63.8337   83.5684   10.7545 C.3     1  UNL1        0.0196
     37 C          63.8797   82.1028   10.4386 C.3     1  UNL1        0.0017
     38 C          63.0361   81.3841   11.4495 C.3     1  UNL1        0.0017
     39 C          62.4687   82.4055   12.3900 C.3     1  UNL1        0.0196
@<TRIPOS>BOND
     1    10    11    1
     2    11    12   ar
     3    12    13   ar
     4    13     1    1
     5     1     2   ar
     6     2     3   ar
     7     3     4   ar
     8     4     5   ar
     9     5    24    1
    10    24    26    1
    11    26    27    1
    12    27    28    1
    13    28    29    1
    14    29    30    1
    15    30    31    1
    16    31    32    1
    17     5     6   ar
    18     6     7   ar
    19     7    33    1
    20    33    35    1
    21    35    36    1
    22    36    37    1
    23    37    38    1
    24    38    39    1
    25     7     8   ar
    26     8     9   ar
    27    13    14   ar
    28    14    15   ar
    29    15    16   ar
    30    16    17    1
    31    17    18    2
    32    17    19   am
    33    19    21    1
    34    21    22    1
    35    22    23    1
    36    16    11   ar
    37    23    21    1
    38     9     1   ar
    39     9     4   ar
    40    32    27    1
    41    39    35    1
    42    24    25    1
    43    33    34    1
    44    19    20    1
@<TRIPOS>MOLECULE
*****
 39 44 0 0 0
SMALL
GASTEIGER

@<TRIPOS>ATOM
      1 C          63.7967   86.9260   13.6116 C.ar    1  UNL1        0.0569
      2 C          64.4846   87.3656   14.8699 C.ar    1  UNL1        0.1237
      3 N          64.4829   88.8653   14.8993 N.ar    1  UNL1       -0.1598
      4 N          63.7940   89.3526   13.6592 N.ar    1  UNL1       -0.1821
      5 C          63.4981   90.7328   13.1518 C.ar    1  UNL1        0.2217
      6 N          62.7780   90.9144   11.8485 N.ar    1  UNL1       -0.1811
      7 C          62.3539   89.7158   11.0526 C.ar    1  UNL1        0.2206
      8 N          62.6498   88.3355   11.5600 N.ar    1  UNL1       -0.1945
      9 C          63.3699   88.1540   12.8633 C.ar    1  UNL1        0.1709
     10 C          64.3254   81.8264   14.4569 C.3     1  UNL1        0.0312
     11 C          63.8389   82.9575   13.6003 C.ar    1  UNL1       -0.0175
     12 C          64.0610   84.3762   14.0342 C.ar    1  UNL1       -0.0040
     13 C          63.5745   85.5074   13.1777 C.ar    1  UNL1        0.0042
     14 C          62.8659   85.2200   11.8872 C.ar    1  UNL1        0.0003
     15 C          62.6438   83.8014   11.4533 C.ar    1  UNL1        0.0042
     16 C          63.1303   82.6702   12.3099 C.ar    1  UNL1        0.0494
     17 C          62.9081   81.2516   11.8759 C.2     1  UNL1        0.2455
     18 O          62.2870   80.2667   12.8215 O.2     1  UNL1       -0.2702
     19 N          63.3071   80.8180   10.4965 N.am    1  UNL1       -0.3025
     20 H          63.7148   81.4645    9.8760 H       1  UNL1        0.1497
     21 C          63.0850   79.3994   10.0626 C.3     1  UNL1        0.0720
     22 C          63.3567   78.2755    9.1072 C.3     1  UNL1        0.0213
     23 C          62.4284   78.0663   10.2666 C.3     1  UNL1        0.0213
     24 N          63.9222   91.9314   13.9477 N.pl3   1  UNL1       -0.3029
     25 H          63.5750   92.8233   13.7172 H       1  UNL1        0.1496
     26 C          64.8754   91.7709   15.0948 C.3     1  UNL1        0.0897
     27 C          66.3299   92.0887   14.9114 C.3     1  UNL1        0.0246
     28 C          67.0361   91.6719   13.6554 C.3     1  UNL1        0.0338
     29 C          68.4905   91.9896   13.4720 C.3     1  UNL1        0.1422
     30 O          69.2388   92.7242   14.5446 O.3     1  UNL1       -0.3538
     31 C          68.5326   93.1411   15.8007 C.3     1  UNL1        0.1422
     32 C          67.0781   92.8233   15.9841 C.3     1  UNL1        0.0338
     33 N          61.6338   89.8974    9.7494 N.pl3   1  UNL1       -0.3045
     34 H          61.6293   90.7774    9.3080 H       1  UNL1        0.1496
     35 C          60.9206   88.7383    9.1187 C.3     1  UNL1        0.0718
     36 C          59.7113   88.8220    8.2352 C.3     1  UNL1        0.0196
     37 C          59.3349   87.4274    7.8312 C.3     1  UNL1        0.0017
     38 C          60.3115   86.4816    8.4650 C.3     1  UNL1        0.0017
     39 C          61.2916   87.2918    9.2607 C.3     1  UNL1        0.0196
@<TRIPOS>BOND
     1    10    11    1
     2    11    12   ar
     3    12    13   ar
     4    13     1    1
     5     1     2   ar
     6     2     3   ar
     7     3     4   ar
     8     4     5   ar
     9     5    24    1
    10    24    26    1
    11    26    27    1
    12    27    28    1
    13    28    29    1
    14    29    30    1
    15    30    31    1
    16    31    32    1
    17     5     6   ar
    18     6     7   ar
    19     7    33    1
    20    33    35    1
    21    35    36    1
    22    36    37    1
    23    37    38    1
    24    38    39    1
    25     7     8   ar
    26     8     9   ar
    27    13    14   ar
    28    14    15   ar
    29    15    16   ar
    30    16    17    1
    31    17    18    2
    32    17    19   am
    33    19    21    1
    34    21    22    1
    35    22    23    1
    36    16    11   ar
    37    23    21    1
    38     9     1   ar
    39     9     4   ar
    40    32    27    1
    41    39    35    1
    42    24    25    1
    43    33    34    1
    44    19    20    1
@<TRIPOS>MOLECULE
*****
 39 44 0 0 0
SMALL
GASTEIGER

@<TRIPOS>ATOM
      1 C          63.5074   89.3306   13.2988 C.ar    1  UNL1        0.0569
      2 C          63.4175   88.9191   14.7384 C.ar    1  UNL1        0.1237
      3 N          64.0323   90.0055   15.5702 N.ar    1  UNL1       -0.1598
      4 N          64.5021   91.0884   14.6446 N.ar    1  UNL1       -0.1821
      5 C          65.1833   92.4003   14.8988 C.ar    1  UNL1        0.2217
      6 N          65.5402   93.2953   13.7491 N.ar    1  UNL1       -0.1811
      7 C          65.2158   92.8782   12.3452 C.ar    1  UNL1        0.2206
      8 N          64.5345   91.5661   12.0911 N.ar    1  UNL1       -0.1945
      9 C          64.1776   90.6713   13.2408 C.ar    1  UNL1        0.1709
     10 C          62.4266   84.7544   11.0873 C.3     1  UNL1        0.0312
     11 C          62.4732   86.2521   11.0176 C.ar    1  UNL1       -0.0175
     12 C          62.9669   87.0426   12.1930 C.ar    1  UNL1       -0.0040
     13 C          63.0136   88.5402   12.1234 C.ar    1  UNL1        0.0042
     14 C          62.5666   89.2475   10.8784 C.ar    1  UNL1        0.0003
     15 C          62.0729   88.4570    9.7031 C.ar    1  UNL1        0.0042
     16 C          62.0262   86.9593    9.7726 C.ar    1  UNL1        0.0494
     17 C          61.5324   86.1689    8.5973 C.2     1  UNL1        0.2455
     18 O          60.0606   86.0688    8.3258 O.2     1  UNL1       -0.2702
     19 N          62.5105   85.4787    7.6934 N.am    1  UNL1       -0.3025
     20 H          63.4765   85.5445    7.8716 H       1  UNL1        0.1497
     21 C          62.0168   84.6883    6.5180 C.3     1  UNL1        0.0720
     22 C          60.9866   83.7943    5.8942 C.3     1  UNL1        0.0213
     23 C          62.1919   84.2134    5.1060 C.3     1  UNL1        0.0213
     24 N          65.5077   92.8174   16.3026 N.pl3   1  UNL1       -0.3029
     25 H          64.8244   93.2624   16.8543 H       1  UNL1        0.1496
     26 C          66.8733   92.5565   16.8660 C.3     1  UNL1        0.0897
     27 C          68.0856   92.7127   15.9966 C.3     1  UNL1        0.0246
     28 C          68.3207   91.7628   14.8598 C.3     1  UNL1        0.0338
     29 C          69.5330   91.9190   13.9904 C.3     1  UNL1        0.1422
     30 O          70.5102   93.0251   14.2577 O.3     1  UNL1       -0.3538
     31 C          70.2752   93.9751   15.3946 C.3     1  UNL1        0.1422
     32 C          69.0628   93.8189   16.2640 C.3     1  UNL1        0.0338
     33 N          65.5726   93.7730   11.1955 N.pl3   1  UNL1       -0.3045
     34 H          65.0546   94.5940   11.0316 H       1  UNL1        0.1496
     35 C          66.7186   93.4170   10.2956 C.3     1  UNL1        0.0718
     36 C          67.1969   94.2154    9.1192 C.3     1  UNL1        0.0196
     37 C          68.3615   93.4919    8.5106 C.3     1  UNL1        0.0017
     38 C          68.6029   92.2463    9.3108 C.3     1  UNL1        0.0017
     39 C          67.5875   92.2000   10.4139 C.3     1  UNL1        0.0196
@<TRIPOS>BOND
     1    10    11    1
     2    11    12   ar
     3    12    13   ar
     4    13     1    1
     5     1     2   ar
     6     2     3   ar
     7     3     4   ar
     8     4     5   ar
     9     5    24    1
    10    24    26    1
    11    26    27    1
    12    27    28    1
    13    28    29    1
    14    29    30    1
    15    30    31    1
    16    31    32    1
    17     5     6   ar
    18     6     7   ar
    19     7    33    1
    20    33    35    1
    21    35    36    1
    22    36    37    1
    23    37    38    1
    24    38    39    1
    25     7     8   ar
    26     8     9   ar
    27    13    14   ar
    28    14    15   ar
    29    15    16   ar
    30    16    17    1
    31    17    18    2
    32    17    19   am
    33    19    21    1
    34    21    22    1
    35    22    23    1
    36    16    11   ar
    37    23    21    1
    38     9     1   ar
    39     9     4   ar
    40    32    27    1
    41    39    35    1
    42    24    25    1
    43    33    34    1
    44    19    20    1
@<TRIPOS>MOLECULE
*****
 39 44 0 0 0
SMALL
GASTEIGER

@<TRIPOS>ATOM
      1 C          63.1901   89.1991   11.4064 C.ar    1  UNL1        0.0569
      2 C          62.6769   89.7690   10.1173 C.ar    1  UNL1        0.1237
      3 N          63.1181   91.2003   10.0353 N.ar    1  UNL1       -0.1598
      4 N          63.9040   91.5149   11.2736 N.ar    1  UNL1       -0.1821
      5 C          64.5847   92.7679   11.7390 C.ar    1  UNL1        0.2217
      6 N          65.3101   92.7840   13.0520 N.ar    1  UNL1       -0.1811
      7 C          65.3546   91.5471   13.8994 C.ar    1  UNL1        0.2206
      8 N          64.6737   90.2941   13.4339 N.ar    1  UNL1       -0.1945
      9 C          63.9485   90.2781   12.1211 C.ar    1  UNL1        0.1709
     10 C          64.2230   85.4246   14.8250 C.3     1  UNL1        0.0312
     11 C          63.4981   85.9090   13.6045 C.ar    1  UNL1       -0.0175
     12 C          63.7065   87.3118   13.1157 C.ar    1  UNL1       -0.0040
     13 C          62.9816   87.7963   11.8951 C.ar    1  UNL1        0.0042
     14 C          62.0482   86.8781   11.1633 C.ar    1  UNL1        0.0003
     15 C          61.8397   85.4753   11.6521 C.ar    1  UNL1        0.0042
     16 C          62.5646   84.9908   12.8727 C.ar    1  UNL1        0.0494
     17 C          62.3561   83.5881   13.3614 C.2     1  UNL1        0.2455
     18 O          61.9880   83.3401   14.7942 O.2     1  UNL1       -0.2702
     19 N          62.5157   82.4334   12.4173 N.am    1  UNL1       -0.3025
     20 H          62.7574   82.5962   11.4769 H       1  UNL1        0.1497
     21 C          62.3072   81.0307   12.9060 C.3     1  UNL1        0.0720
     22 C          61.6337   80.0657   13.8362 C.3     1  UNL1        0.0213
     23 C          62.6196   79.5660   12.8223 C.3     1  UNL1        0.0213
     24 N          64.5402   94.0048   10.8916 N.pl3   1  UNL1       -0.3029
     25 H          63.6738   94.3750   10.6061 H       1  UNL1        0.1496
     26 C          65.8159   94.6776   10.4791 C.3     1  UNL1        0.0897
     27 C          66.8668   93.9038    9.7396 C.3     1  UNL1        0.0246
     28 C          67.3522   92.5918   10.2809 C.3     1  UNL1        0.0338
     29 C          68.4031   91.8180    9.5415 C.3     1  UNL1        0.1422
     30 O          68.9687   92.3562    8.2607 O.3     1  UNL1       -0.3538
     31 C          68.4833   93.6683    7.7193 C.3     1  UNL1        0.1422
     32 C          67.4324   94.4421    8.4588 C.3     1  UNL1        0.0338
     33 N          66.0798   91.5632   15.2123 N.pl3   1  UNL1       -0.3045
     34 H          65.6980   91.0978   15.9913 H       1  UNL1        0.1496
     35 C          67.3869   92.2883   15.3383 C.3     1  UNL1        0.0718
     36 C          68.6429   91.9804   14.5782 C.3     1  UNL1        0.0196
     37 C          69.6996   92.9505   15.0166 C.3     1  UNL1        0.0017
     38 C          69.0967   93.8580   16.0477 C.3     1  UNL1        0.0017
     39 C          67.6674   93.4487   16.2464 C.3     1  UNL1        0.0196
@<TRIPOS>BOND
     1    10    11    1
     2    11    12   ar
     3    12    13   ar
     4    13     1    1
     5     1     2   ar
     6     2     3   ar
     7     3     4   ar
     8     4     5   ar
     9     5    24    1
    10    24    26    1
    11    26    27    1
    12    27    28    1
    13    28    29    1
    14    29    30    1
    15    30    31    1
    16    31    32    1
    17     5     6   ar
    18     6     7   ar
    19     7    33    1
    20    33    35    1
    21    35    36    1
    22    36    37    1
    23    37    38    1
    24    38    39    1
    25     7     8   ar
    26     8     9   ar
    27    13    14   ar
    28    14    15   ar
    29    15    16   ar
    30    16    17    1
    31    17    18    2
    32    17    19   am
    33    19    21    1
    34    21    22    1
    35    22    23    1
    36    16    11   ar
    37    23    21    1
    38     9     1   ar
    39     9     4   ar
    40    32    27    1
    41    39    35    1
    42    24    25    1
    43    33    34    1
    44    19    20    1
@<TRIPOS>MOLECULE
*****
 39 44 0 0 0
SMALL
GASTEIGER

@<TRIPOS>ATOM
      1 C          63.1497   90.1010   12.3511 C.ar    1  UNL1        0.0569
      2 C          63.5734   91.5198   12.1109 C.ar    1  UNL1        0.1237
      3 N          63.9992   92.1051   13.4247 N.ar    1  UNL1       -0.1598
      4 N          63.8386   91.0481   14.4769 N.ar    1  UNL1       -0.1821
      5 C          64.1026   91.0535   15.9534 C.ar    1  UNL1        0.2217
      6 N          63.8416   89.8203   16.7665 N.ar    1  UNL1       -0.1811
      7 C          63.3166   88.5817   16.1030 C.ar    1  UNL1        0.2206
      8 N          63.0526   88.5763   14.6264 N.ar    1  UNL1       -0.1945
      9 C          63.3136   89.8095   13.8134 C.ar    1  UNL1        0.1709
     10 C          62.3805   85.2264   10.7244 C.3     1  UNL1        0.0312
     11 C          62.2652   86.7047   10.4982 C.ar    1  UNL1       -0.0175
     12 C          62.7651   87.6638   11.5377 C.ar    1  UNL1       -0.0040
     13 C          62.6498   89.1421   11.3116 C.ar    1  UNL1        0.0042
     14 C          62.0348   89.6616   10.0460 C.ar    1  UNL1        0.0003
     15 C          61.5349   88.7025    9.0065 C.ar    1  UNL1        0.0042
     16 C          61.6501   87.2242    9.2326 C.ar    1  UNL1        0.0494
     17 C          61.1503   86.2652    8.1930 C.2     1  UNL1        0.2455
     18 O          59.6759   86.0575    8.0115 O.2     1  UNL1       -0.2702
     19 N          62.1248   85.5141    7.3351 N.am    1  UNL1       -0.3025
     20 H          63.0925   85.6505    7.4542 H       1  UNL1        0.1497
     21 C          61.6250   84.5552    6.2956 C.3     1  UNL1        0.0720
     22 C          60.6663   83.4822    5.8718 C.3     1  UNL1        0.0213
     23 C          61.7179   83.9673    4.9187 C.3     1  UNL1        0.0213
     24 N          64.6276   92.2921   16.6170 N.pl3   1  UNL1       -0.3029
     25 H          64.0426   92.8202   17.2069 H       1  UNL1        0.1496
     26 C          66.0441   92.7260   16.3816 C.3     1  UNL1        0.0897
     27 C          66.6142   92.7053   14.9943 C.3     1  UNL1        0.0246
     28 C          67.4806   91.5618   14.5565 C.3     1  UNL1        0.0338
     29 C          68.0507   91.5411   13.1693 C.3     1  UNL1        0.1422
     30 O          67.7544   92.6638   12.2198 O.3     1  UNL1       -0.3538
     31 C          66.8879   93.8074   12.6575 C.3     1  UNL1        0.1422
     32 C          66.3178   93.8281   14.0448 C.3     1  UNL1        0.0338
     33 N          63.0556   87.3485   16.9160 N.pl3   1  UNL1       -0.3045
     34 H          62.7916   87.4286   17.8611 H       1  UNL1        0.1496
     35 C          63.1969   85.9931   16.2892 C.3     1  UNL1        0.0718
     36 C          64.4157   85.4675   15.5905 C.3     1  UNL1        0.0196
     37 C          64.1163   84.0748   15.1204 C.3     1  UNL1        0.0017
     38 C          62.7124   83.7397   15.5287 C.3     1  UNL1        0.0017
     39 C          62.1442   84.9252   16.2510 C.3     1  UNL1        0.0196
@<TRIPOS>BOND
     1    10    11    1
     2    11    12   ar
     3    12    13   ar
     4    13     1    1
     5     1     2   ar
     6     2     3   ar
     7     3     4   ar
     8     4     5   ar
     9     5    24    1
    10    24    26    1
    11    26    27    1
    12    27    28    1
    13    28    29    1
    14    29    30    1
    15    30    31    1
    16    31    32    1
    17     5     6   ar
    18     6     7   ar
    19     7    33    1
    20    33    35    1
    21    35    36    1
    22    36    37    1
    23    37    38    1
    24    38    39    1
    25     7     8   ar
    26     8     9   ar
    27    13    14   ar
    28    14    15   ar
    29    15    16   ar
    30    16    17    1
    31    17    18    2
    32    17    19   am
    33    19    21    1
    34    21    22    1
    35    22    23    1
    36    16    11   ar
    37    23    21    1
    38     9     1   ar
    39     9     4   ar
    40    32    27    1
    41    39    35    1
    42    24    25    1
    43    33    34    1
    44    19    20    1
