@<TRIPOS>MOLECULE
*****
 24 27 0 0 0
SMALL
GASTEIGER

@<TRIPOS>ATOM
      1 O          62.7359   90.8112   10.1231 O.2     1  UNL1       -0.2526
      2 C          63.1129   90.2644   11.4681 C.2     1  UNL1        0.3039
      3 N          62.3729   89.0889   12.0341 N.am    1  UNL1       -0.2901
      4 N          64.2301   90.8932   12.2470 N.am    1  UNL1       -0.2641
      5 C          64.9701   92.0688   11.6809 C.3     1  UNL1        0.0969
      6 C          66.0872   92.6976   12.4597 C.3     1  UNL1        0.0460
      7 C          66.4643   92.1508   13.8047 C.3     1  UNL1        0.1103
      8 C          65.7243   90.9753   14.3707 C.3     1  UNL1        0.0460
      9 C          64.6072   90.3465   13.5919 C.3     1  UNL1        0.0969
     10 H          62.6204   88.7300   12.9168 H       1  UNL1        0.1509
     11 N          67.5814   92.7796   14.5836 N.ar    1  UNL1       -0.2320
     12 C          67.4300   93.6545   15.7925 C.ar    1  UNL1        0.1191
     13 C          68.8011   94.0595   16.2464 C.ar    1  UNL1        0.1441
     14 N          69.8000   93.4349   15.3180 N.ar    1  UNL1       -0.1271
     15 N          69.0462   92.6438   14.2903 N.ar    1  UNL1       -0.0638
     16 C          61.2558   88.4601   11.2552 C.3     1  UNL1        0.0774
     17 C          59.7879   88.2753   11.0080 C.3     1  UNL1        0.0259
     18 C          60.7888   87.5557   10.1535 C.3     1  UNL1        0.0420
     19 C          61.0971   86.6180    9.0239 C.ar    1  UNL1       -0.0208
     20 C          60.0355   86.2784    8.0201 C.ar    1  UNL1       -0.0042
     21 C          60.3438   85.3408    6.8906 C.ar    1  UNL1       -0.0003
     22 C          61.7137   84.7428    6.7649 C.ar    1  UNL1       -0.0000
     23 C          62.7753   85.0824    7.7687 C.ar    1  UNL1       -0.0003
     24 C          62.4670   86.0200    8.8982 C.ar    1  UNL1       -0.0042
@<TRIPOS>BOND
     1     1     2    2
     2     2     3   am
     3     3    16    1
     4    16    17    1
     5    17    18    1
     6    18    19    1
     7    19    20   ar
     8    20    21   ar
     9    21    22   ar
    10    22    23   ar
    11    23    24   ar
    12     2     4   am
    13     4     5    1
    14     5     6    1
    15     6     7    1
    16     7    11    1
    17    11    12   ar
    18    12    13   ar
    19    13    14   ar
    20    14    15   ar
    21     7     8    1
    22     8     9    1
    23    18    16    1
    24    24    19   ar
    25     9     4    1
    26    15    11   ar
    27     3    10    1
@<TRIPOS>MOLECULE
*****
 24 27 0 0 0
SMALL
GASTEIGER

@<TRIPOS>ATOM
      1 O          63.0612   89.0569   13.0865 O.2     1  UNL1       -0.2526
      2 C          63.9973   90.0173   13.7584 C.2     1  UNL1        0.3039
      3 N          64.3532   89.8308   15.2036 N.am    1  UNL1       -0.2901
      4 N          64.5774   91.1643   12.9851 N.am    1  UNL1       -0.2641
      5 C          64.2215   91.3508   11.5399 C.3     1  UNL1        0.0969
      6 C          64.8017   92.4977   10.7666 C.3     1  UNL1        0.0460
      7 C          65.7377   93.4581   11.4386 C.3     1  UNL1        0.1103
      8 C          66.0936   93.2716   12.8837 C.3     1  UNL1        0.0460
      9 C          65.5134   92.1247   13.6570 C.3     1  UNL1        0.0969
     10 H          64.9675   90.4612   15.6446 H       1  UNL1        0.1509
     11 N          66.3179   94.6051   10.6653 N.ar    1  UNL1       -0.2320
     12 C          66.0840   96.0612   10.9392 C.ar    1  UNL1        0.1191
     13 C          66.8553   96.8533    9.9255 C.ar    1  UNL1        0.1441
     14 N          67.5659   95.8867    9.0250 N.ar    1  UNL1       -0.1271
     15 N          67.2337   94.4973    9.4822 N.ar    1  UNL1       -0.0638
     16 C          63.7730   88.6839   15.9769 C.3     1  UNL1        0.0774
     17 C          63.0314   88.1672   17.1739 C.3     1  UNL1        0.0259
     18 C          63.5098   87.2141   16.1192 C.3     1  UNL1        0.0420
     19 C          63.6341   85.8151   15.5923 C.ar    1  UNL1       -0.0208
     20 C          64.8003   85.4406   14.7264 C.ar    1  UNL1       -0.0042
     21 C          64.9245   84.0417   14.1996 C.ar    1  UNL1       -0.0003
     22 C          63.8826   83.0173   14.5387 C.ar    1  UNL1       -0.0000
     23 C          62.7165   83.3917   15.4046 C.ar    1  UNL1       -0.0003
     24 C          62.5922   84.7906   15.9314 C.ar    1  UNL1       -0.0042
@<TRIPOS>BOND
     1     1     2    2
     2     2     3   am
     3     3    16    1
     4    16    17    1
     5    17    18    1
     6    18    19    1
     7    19    20   ar
     8    20    21   ar
     9    21    22   ar
    10    22    23   ar
    11    23    24   ar
    12     2     4   am
    13     4     5    1
    14     5     6    1
    15     6     7    1
    16     7    11    1
    17    11    12   ar
    18    12    13   ar
    19    13    14   ar
    20    14    15   ar
    21     7     8    1
    22     8     9    1
    23    18    16    1
    24    24    19   ar
    25     9     4    1
    26    15    11   ar
    27     3    10    1
@<TRIPOS>MOLECULE
*****
 24 27 0 0 0
SMALL
GASTEIGER

@<TRIPOS>ATOM
      1 O          64.7123   88.4140   14.9070 O.2     1  UNL1       -0.2526
      2 C          63.9630   87.8780   13.7232 C.2     1  UNL1        0.3039
      3 N          63.5712   88.7973   12.6046 N.am    1  UNL1       -0.2901
      4 N          63.6055   86.4227   13.6581 N.am    1  UNL1       -0.2641
      5 C          63.9974   85.5034   14.7768 C.3     1  UNL1        0.0969
      6 C          63.6399   84.0480   14.7117 C.3     1  UNL1        0.0460
      7 C          62.8906   83.5120   13.5280 C.3     1  UNL1        0.1103
      8 C          62.4988   84.4313   12.4094 C.3     1  UNL1        0.0460
      9 C          62.8562   85.8866   12.4744 C.3     1  UNL1        0.0969
     10 H          63.0794   88.4455   11.8277 H       1  UNL1        0.1509
     11 N          62.5331   82.0567   13.4629 N.ar    1  UNL1       -0.2320
     12 C          63.2150   81.0180   12.6226 C.ar    1  UNL1        0.1191
     13 C          62.5343   79.7039   12.8670 C.ar    1  UNL1        0.1441
     14 N          61.4317   79.9304   13.8585 N.ar    1  UNL1       -0.1271
     15 N          61.4310   81.3845   14.2267 N.ar    1  UNL1       -0.0638
     16 C          63.9286   90.2526   12.6697 C.3     1  UNL1        0.0774
     17 C          63.6891   91.6695   12.2398 C.3     1  UNL1        0.0259
     18 C          64.7873   91.3563   13.2123 C.3     1  UNL1        0.0420
     19 C          65.9172   91.8127   14.0870 C.ar    1  UNL1       -0.0208
     20 C          65.6550   92.1904   15.5148 C.ar    1  UNL1       -0.0042
     21 C          66.7848   92.6468   16.3895 C.ar    1  UNL1       -0.0003
     22 C          68.1769   92.7254   15.8364 C.ar    1  UNL1       -0.0000
     23 C          68.4392   92.3476   14.4087 C.ar    1  UNL1       -0.0003
     24 C          67.3093   91.8913   13.5340 C.ar    1  UNL1       -0.0042
@<TRIPOS>BOND
     1     1     2    2
     2     2     3   am
     3     3    16    1
     4    16    17    1
     5    17    18    1
     6    18    19    1
     7    19    20   ar
     8    20    21   ar
     9    21    22   ar
    10    22    23   ar
    11    23    24   ar
    12     2     4   am
    13     4     5    1
    14     5     6    1
    15     6     7    1
    16     7    11    1
    17    11    12   ar
    18    12    13   ar
    19    13    14   ar
    20    14    15   ar
    21     7     8    1
    22     8     9    1
    23    18    16    1
    24    24    19   ar
    25     9     4    1
    26    15    11   ar
    27     3    10    1
@<TRIPOS>MOLECULE
*****
 24 27 0 0 0
SMALL
GASTEIGER

@<TRIPOS>ATOM
      1 O          62.8883   87.9537   12.7073 O.2     1  UNL1       -0.2526
      2 C          63.8714   88.7549   13.5083 C.2     1  UNL1        0.3039
      3 N          64.3731   88.2309   14.8212 N.am    1  UNL1       -0.2901
      4 N          64.3527   90.0802   12.9964 N.am    1  UNL1       -0.2641
      5 C          63.8510   90.6042   11.6835 C.3     1  UNL1        0.0969
      6 C          64.3323   91.9294   11.1716 C.3     1  UNL1        0.0460
      7 C          65.3154   92.7307   11.9726 C.3     1  UNL1        0.1103
      8 C          65.8171   92.2067   13.2855 C.3     1  UNL1        0.0460
      9 C          65.3358   90.8814   13.7974 C.3     1  UNL1        0.0969
     10 H          65.0183   88.7568   15.3469 H       1  UNL1        0.1509
     11 N          65.7967   94.0559   11.4607 N.ar    1  UNL1       -0.2320
     12 C          66.0574   94.4048   10.0254 C.ar    1  UNL1        0.1191
     13 C          66.5237   95.8295    9.9718 C.ar    1  UNL1        0.1441
     14 N          66.5512   96.3611   11.3742 N.ar    1  UNL1       -0.1271
     15 N          66.1020   95.2650   12.2944 N.ar    1  UNL1       -0.0638
     16 C          63.8917   86.9057   15.3331 C.3     1  UNL1        0.0774
     17 C          63.5083   86.0174   16.4793 C.3     1  UNL1        0.0259
     18 C          63.4415   85.4986   15.0735 C.3     1  UNL1        0.0420
     19 C          63.1430   84.3867   14.1119 C.ar    1  UNL1       -0.0208
     20 C          62.5633   83.0972   14.6130 C.ar    1  UNL1       -0.0042
     21 C          62.2649   81.9854   13.6514 C.ar    1  UNL1       -0.0003
     22 C          62.5461   82.1631   12.1887 C.ar    1  UNL1       -0.0000
     23 C          63.1258   83.4526   11.6876 C.ar    1  UNL1       -0.0003
     24 C          63.4242   84.5644   12.6492 C.ar    1  UNL1       -0.0042
@<TRIPOS>BOND
     1     1     2    2
     2     2     3   am
     3     3    16    1
     4    16    17    1
     5    17    18    1
     6    18    19    1
     7    19    20   ar
     8    20    21   ar
     9    21    22   ar
    10    22    23   ar
    11    23    24   ar
    12     2     4   am
    13     4     5    1
    14     5     6    1
    15     6     7    1
    16     7    11    1
    17    11    12   ar
    18    12    13   ar
    19    13    14   ar
    20    14    15   ar
    21     7     8    1
    22     8     9    1
    23    18    16    1
    24    24    19   ar
    25     9     4    1
    26    15    11   ar
    27     3    10    1
@<TRIPOS>MOLECULE
*****
 24 27 0 0 0
SMALL
GASTEIGER

@<TRIPOS>ATOM
      1 O          63.6267   90.0448   12.4017 O.2     1  UNL1       -0.2526
      2 C          64.2180   89.1720   13.4688 C.2     1  UNL1        0.3039
      3 N          65.1282   89.7646   14.5033 N.am    1  UNL1       -0.2901
      4 N          63.8989   87.7067   13.5014 N.am    1  UNL1       -0.2641
      5 C          62.9885   87.1142   12.4668 C.3     1  UNL1        0.0969
      6 C          62.6694   85.6489   12.4994 C.3     1  UNL1        0.0460
      7 C          63.2607   84.7761   13.5665 C.3     1  UNL1        0.1103
      8 C          64.1710   85.3686   14.6010 C.3     1  UNL1        0.0460
      9 C          64.4901   86.8339   14.5685 C.3     1  UNL1        0.0969
     10 H          65.5163   89.1917   15.2037 H       1  UNL1        0.1509
     11 N          62.9416   83.3108   13.5991 N.ar    1  UNL1       -0.2320
     12 C          62.7111   82.4319   12.4056 C.ar    1  UNL1        0.1191
     13 C          62.4240   81.0450   12.8997 C.ar    1  UNL1        0.1441
     14 N          62.4772   81.0668   14.3986 N.ar    1  UNL1       -0.1271
     15 N          62.7970   82.4671   14.8308 N.ar    1  UNL1       -0.0638
     16 C          65.4473   91.2299   14.4708 C.3     1  UNL1        0.0774
     17 C          65.5686   92.5489   15.1747 C.3     1  UNL1        0.0259
     18 C          65.8787   92.4488   13.7105 C.3     1  UNL1        0.0420
     19 C          66.3069   93.0948   12.4261 C.ar    1  UNL1       -0.0208
     20 C          66.1581   94.5764   12.2458 C.ar    1  UNL1       -0.0042
     21 C          66.5862   95.2223   10.9615 C.ar    1  UNL1       -0.0003
     22 C          67.1631   94.3866    9.8575 C.ar    1  UNL1       -0.0000
     23 C          67.3119   92.9049   10.0379 C.ar    1  UNL1       -0.0003
     24 C          66.8838   92.2590   11.3222 C.ar    1  UNL1       -0.0042
@<TRIPOS>BOND
     1     1     2    2
     2     2     3   am
     3     3    16    1
     4    16    17    1
     5    17    18    1
     6    18    19    1
     7    19    20   ar
     8    20    21   ar
     9    21    22   ar
    10    22    23   ar
    11    23    24   ar
    12     2     4   am
    13     4     5    1
    14     5     6    1
    15     6     7    1
    16     7    11    1
    17    11    12   ar
    18    12    13   ar
    19    13    14   ar
    20    14    15   ar
    21     7     8    1
    22     8     9    1
    23    18    16    1
    24    24    19   ar
    25     9     4    1
    26    15    11   ar
    27     3    10    1
@<TRIPOS>MOLECULE
*****
 24 27 0 0 0
SMALL
GASTEIGER

@<TRIPOS>ATOM
      1 O          63.0904   88.8185   12.2701 O.2     1  UNL1       -0.2526
      2 C          63.5916   87.8796   13.3272 C.2     1  UNL1        0.3039
      3 N          64.2746   88.4205   14.5482 N.am    1  UNL1       -0.2901
      4 N          63.4097   86.3997   13.1632 N.am    1  UNL1       -0.2641
      5 C          62.7267   85.8588   11.9421 C.3     1  UNL1        0.0969
      6 C          62.5448   84.3789   11.7780 C.3     1  UNL1        0.0460
      7 C          63.0460   83.4400   12.8351 C.3     1  UNL1        0.1103
      8 C          63.7290   83.9809   14.0561 C.3     1  UNL1        0.0460
      9 C          63.9108   85.4608   14.2201 C.3     1  UNL1        0.0969
     10 H          64.6035   87.8042   15.2419 H       1  UNL1        0.1509
     11 N          62.8641   81.9601   12.6711 N.ar    1  UNL1       -0.2320
     12 C          62.5311   80.9864   13.7624 C.ar    1  UNL1        0.1191
     13 C          62.4445   79.6186   13.1527 C.ar    1  UNL1        0.1441
     14 N          62.7240   79.7469   11.6846 N.ar    1  UNL1       -0.1271
     15 N          62.9833   81.1941   11.3869 N.ar    1  UNL1       -0.0638
     16 C          64.4564   89.9004   14.7122 C.3     1  UNL1        0.0774
     17 C          64.4478   91.1216   15.5831 C.3     1  UNL1        0.0259
     18 C          64.7801   91.2423   14.1254 C.3     1  UNL1        0.0420
     19 C          65.1587   92.0868   12.9449 C.ar    1  UNL1       -0.0208
     20 C          64.5973   91.7757   11.5892 C.ar    1  UNL1       -0.0042
     21 C          64.9760   92.6201   10.4088 C.ar    1  UNL1       -0.0003
     22 C          65.9161   93.7758   10.5841 C.ar    1  UNL1       -0.0000
     23 C          66.4775   94.0870   11.9398 C.ar    1  UNL1       -0.0003
     24 C          66.0988   93.2425   13.1202 C.ar    1  UNL1       -0.0042
@<TRIPOS>BOND
     1     1     2    2
     2     2     3   am
     3     3    16    1
     4    16    17    1
     5    17    18    1
     6    18    19    1
     7    19    20   ar
     8    20    21   ar
     9    21    22   ar
    10    22    23   ar
    11    23    24   ar
    12     2     4   am
    13     4     5    1
    14     5     6    1
    15     6     7    1
    16     7    11    1
    17    11    12   ar
    18    12    13   ar
    19    13    14   ar
    20    14    15   ar
    21     7     8    1
    22     8     9    1
    23    18    16    1
    24    24    19   ar
    25     9     4    1
    26    15    11   ar
    27     3    10    1
@<TRIPOS>MOLECULE
*****
 24 27 0 0 0
SMALL
GASTEIGER

@<TRIPOS>ATOM
      1 O          62.9258   88.6793   11.4713 O.2     1  UNL1       -0.2526
      2 C          63.4107   87.8971   12.6558 C.2     1  UNL1        0.3039
      3 N          64.1016   88.5996   13.7867 N.am    1  UNL1       -0.2901
      4 N          63.2046   86.4123   12.7094 N.am    1  UNL1       -0.2641
      5 C          62.5136   85.7097   11.5784 C.3     1  UNL1        0.0969
      6 C          62.3075   84.2249   11.6319 C.3     1  UNL1        0.0460
      7 C          62.7924   83.4427   12.8165 C.3     1  UNL1        0.1103
      8 C          63.4833   84.1452   13.9474 C.3     1  UNL1        0.0460
      9 C          63.6894   85.6300   13.8938 C.3     1  UNL1        0.0969
     10 H          64.4198   88.0862   14.5641 H       1  UNL1        0.1509
     11 N          62.5863   81.9578   12.8700 N.ar    1  UNL1       -0.2320
     12 C          61.9486   81.1962   13.9940 C.ar    1  UNL1        0.1191
     13 C          61.9499   79.7416   13.6277 C.ar    1  UNL1        0.1441
     14 N          62.5883   79.6043   12.2773 N.ar    1  UNL1       -0.1271
     15 N          62.9816   80.9740   11.8091 N.ar    1  UNL1       -0.0638
     16 C          64.3077   90.0844   13.7331 C.3     1  UNL1        0.0774
     17 C          63.8110   91.4526   13.3708 C.3     1  UNL1        0.0259
     18 C          65.1614   91.2880   14.0027 C.3     1  UNL1        0.0420
     19 C          66.4340   91.8878   14.5233 C.ar    1  UNL1       -0.0208
     20 C          66.4392   92.6128   15.8364 C.ar    1  UNL1       -0.0042
     21 C          67.7117   93.2125   16.3568 C.ar    1  UNL1       -0.0003
     22 C          68.9790   93.0873   15.5642 C.ar    1  UNL1       -0.0000
     23 C          68.9738   92.3623   14.2511 C.ar    1  UNL1       -0.0003
     24 C          67.7013   91.7625   13.7306 C.ar    1  UNL1       -0.0042
@<TRIPOS>BOND
     1     1     2    2
     2     2     3   am
     3     3    16    1
     4    16    17    1
     5    17    18    1
     6    18    19    1
     7    19    20   ar
     8    20    21   ar
     9    21    22   ar
    10    22    23   ar
    11    23    24   ar
    12     2     4   am
    13     4     5    1
    14     5     6    1
    15     6     7    1
    16     7    11    1
    17    11    12   ar
    18    12    13   ar
    19    13    14   ar
    20    14    15   ar
    21     7     8    1
    22     8     9    1
    23    18    16    1
    24    24    19   ar
    25     9     4    1
    26    15    11   ar
    27     3    10    1
@<TRIPOS>MOLECULE
*****
 24 27 0 0 0
SMALL
GASTEIGER

@<TRIPOS>ATOM
      1 O          61.6056   84.8679   10.1375 O.2     1  UNL1       -0.2526
      2 C          61.5969   86.3501   10.3681 C.2     1  UNL1        0.3039
      3 N          62.2614   86.9238   11.5843 N.am    1  UNL1       -0.2901
      4 N          60.9236   87.2585    9.3825 N.am    1  UNL1       -0.2641
      5 C          60.2591   86.6847    8.1662 C.3     1  UNL1        0.0969
      6 C          59.5858   87.5931    7.1806 C.3     1  UNL1        0.0460
      7 C          59.5771   89.0753    7.4112 C.3     1  UNL1        0.1103
      8 C          60.2417   89.6490    8.6274 C.3     1  UNL1        0.0460
      9 C          60.9149   88.7406    9.6130 C.3     1  UNL1        0.0969
     10 H          62.2557   87.8966   11.7357 H       1  UNL1        0.1509
     11 N          58.9039   89.9837    6.4255 N.ar    1  UNL1       -0.2320
     12 C          59.5925   90.8942    5.4524 C.ar    1  UNL1        0.1191
     13 C          58.5380   91.6143    4.6654 C.ar    1  UNL1        0.1441
     14 N          57.1976   91.1490    5.1521 N.ar    1  UNL1       -0.1271
     15 N          57.4238   90.1413    6.2399 N.ar    1  UNL1       -0.0638
     16 C          62.9347   86.0154   12.5700 C.3     1  UNL1        0.0774
     17 C          63.8917   85.8137   13.7073 C.3     1  UNL1        0.0259
     18 C          63.1438   84.6437   13.1399 C.3     1  UNL1        0.0420
     19 C          62.8327   83.1763   13.1413 C.ar    1  UNL1       -0.0208
     20 C          62.1076   82.5645   14.3031 C.ar    1  UNL1       -0.0042
     21 C          61.7966   81.0971   14.3044 C.ar    1  UNL1       -0.0003
     22 C          62.2106   80.2416   13.1440 C.ar    1  UNL1       -0.0000
     23 C          62.9358   80.8534   11.9822 C.ar    1  UNL1       -0.0003
     24 C          63.2468   82.3208   11.9808 C.ar    1  UNL1       -0.0042
@<TRIPOS>BOND
     1     1     2    2
     2     2     3   am
     3     3    16    1
     4    16    17    1
     5    17    18    1
     6    18    19    1
     7    19    20   ar
     8    20    21   ar
     9    21    22   ar
    10    22    23   ar
    11    23    24   ar
    12     2     4   am
    13     4     5    1
    14     5     6    1
    15     6     7    1
    16     7    11    1
    17    11    12   ar
    18    12    13   ar
    19    13    14   ar
    20    14    15   ar
    21     7     8    1
    22     8     9    1
    23    18    16    1
    24    24    19   ar
    25     9     4    1
    26    15    11   ar
    27     3    10    1
@<TRIPOS>MOLECULE
*****
 24 27 0 0 0
SMALL
GASTEIGER

@<TRIPOS>ATOM
      1 O          58.6375   92.4694    4.1176 O.2     1  UNL1       -0.2526
      2 C          60.0670   92.0271    4.0122 C.2     1  UNL1        0.3039
      3 N          60.5717   90.9093    4.8756 N.am    1  UNL1       -0.2901
      4 N          60.9916   92.7027    3.0434 N.am    1  UNL1       -0.2641
      5 C          60.4868   93.8207    2.1800 C.3     1  UNL1        0.0969
      6 C          61.4114   94.4963    1.2111 C.3     1  UNL1        0.0460
      7 C          62.8409   94.0539    1.1058 C.3     1  UNL1        0.1103
      8 C          63.3457   92.9361    1.9692 C.3     1  UNL1        0.0460
      9 C          62.4210   92.2605    2.9380 C.3     1  UNL1        0.0969
     10 H          61.5099   90.6190    4.8065 H       1  UNL1        0.1509
     11 N          63.7655   94.7296    0.1370 N.ar    1  UNL1       -0.2320
     12 C          63.4966   94.9665   -1.3196 C.ar    1  UNL1        0.1191
     13 C          64.6864   95.6702   -1.9021 C.ar    1  UNL1        0.1441
     14 N          65.6906   95.8682   -0.8056 N.ar    1  UNL1       -0.1271
     15 N          65.1215   95.2869    0.4546 N.ar    1  UNL1       -0.0638
     16 C          59.6471   90.2337    5.8444 C.3     1  UNL1        0.0774
     17 C          58.2564   89.9416    6.3247 C.3     1  UNL1        0.0259
     18 C          59.4362   89.3556    7.0421 C.3     1  UNL1        0.0420
     19 C          59.9957   88.5102    8.1478 C.ar    1  UNL1       -0.0208
     20 C          60.4604   89.1524    9.4212 C.ar    1  UNL1       -0.0042
     21 C          61.0198   88.3071   10.5268 C.ar    1  UNL1       -0.0003
     22 C          61.1146   86.8195   10.3590 C.ar    1  UNL1       -0.0000
     23 C          60.6499   86.1773    9.0856 C.ar    1  UNL1       -0.0003
     24 C          60.0905   87.0226    7.9800 C.ar    1  UNL1       -0.0042
@<TRIPOS>BOND
     1     1     2    2
     2     2     3   am
     3     3    16    1
     4    16    17    1
     5    17    18    1
     6    18    19    1
     7    19    20   ar
     8    20    21   ar
     9    21    22   ar
    10    22    23   ar
    11    23    24   ar
    12     2     4   am
    13     4     5    1
    14     5     6    1
    15     6     7    1
    16     7    11    1
    17    11    12   ar
    18    12    13   ar
    19    13    14   ar
    20    14    15   ar
    21     7     8    1
    22     8     9    1
    23    18    16    1
    24    24    19   ar
    25     9     4    1
    26    15    11   ar
    27     3    10    1
