@<TRIPOS>MOLECULE
*****
 41 44 0 0 0
SMALL
GASTEIGER

@<TRIPOS>ATOM
      1 C          64.7654   83.0094   13.6443 C.3     1  UNL1        0.0974
      2 C          64.0164   82.1485   12.6707 C.3     1  UNL1        0.0642
      3 C          63.3238   80.8563   12.9878 C.3     1  UNL1        0.0728
      4 N          62.7077   80.3378   11.7223 N.3     1  UNL1       -0.2953
      5 C          63.0196   81.3095   10.6230 C.3     1  UNL1        0.0986
      6 C          63.8284   82.4286   11.2092 C.3     1  UNL1        0.1342
      7 H          61.6974   80.2572   11.8368 H       1  UNL1        0.1233
      8 O          64.3564   83.6188   10.4645 O.3     1  UNL1       -0.3500
      9 C          63.9833   83.8303    9.0272 C.3     1  UNL1        0.1685
     10 C          62.8890   84.7919    8.6700 C.ar    1  UNL1        0.0073
     11 C          62.0681   84.5687    7.4346 C.ar    1  UNL1       -0.0019
     12 C          60.9737   85.5304    7.0774 C.ar    1  UNL1       -0.0002
     13 C          60.7003   86.7153    7.9556 C.ar    1  UNL1       -0.0000
     14 C          61.5213   86.9385    9.1909 C.ar    1  UNL1       -0.0002
     15 C          62.6156   85.9769    9.5482 C.ar    1  UNL1       -0.0019
     16 C          61.2479   88.1235   10.0691 C.ar    1  UNL1       -0.0000
     17 C          62.2314   89.2544   10.1305 C.ar    1  UNL1       -0.0000
     18 C          61.9580   90.4393   11.0087 C.ar    1  UNL1       -0.0000
     19 C          60.7011   90.4934   11.8255 C.ar    1  UNL1        0.0000
     20 C          59.7176   89.3624   11.7642 C.ar    1  UNL1       -0.0000
     21 C          59.9910   88.1775   10.8860 C.ar    1  UNL1       -0.0000
     22 C          65.0746   85.3841   14.6518 C.2     1  UNL1        0.2491
     23 O          66.5515   85.1457   14.7605 O.2     1  UNL1       -0.2699
     24 N          64.1815   84.3159   14.0937 N.am    1  UNL1       -0.2776
     25 C          63.9895   89.2015   14.6604 C.ar    1  UNL1        0.1723
     26 C          64.5734   87.8950   14.2110 C.ar    1  UNL1        0.0446
     27 C          64.4906   86.6906   15.1013 C.ar    1  UNL1        0.0568
     28 C          63.8239   86.7928   16.4411 C.ar    1  UNL1        0.0078
     29 C          63.2400   88.0993   16.8905 C.ar    1  UNL1        0.0402
     30 C          63.3228   89.3037   16.0001 C.ar    1  UNL1        0.1724
     31 O          62.7388   90.6102   16.4496 O.3     1  UNL1       -0.4684
     32 C          63.6404   91.7706   16.7509 C.3     1  UNL1        0.2526
     33 O          64.0723   90.4058   13.7700 O.3     1  UNL1       -0.4723
     34 C          65.3663   91.1525   13.6368 C.3     1  UNL1        0.2082
     35 C          65.4424   92.3721   12.7669 C.3     1  UNL1        0.0794
     36 C          66.4421   93.4486   13.0702 C.3     1  UNL1        0.1461
     37 C          67.6587   93.3699   15.3645 C.3     1  UNL1        0.1741
     38 O          67.6619   93.1316   13.8836 O.3     1  UNL1       -0.3510
     39 C          62.7045   84.5543   13.9851 C.3     1  UNL1        0.0757
     40 C          62.1431   85.2448   12.7777 C.3     1  UNL1        0.0215
     41 C          61.7891   84.1021   15.0839 C.3     1  UNL1        0.0215
@<TRIPOS>BOND
     1    37    38    1
     2    38    36    1
     3    36    35    1
     4    35    34    1
     5    34    33    1
     6    33    25    1
     7    25    26   ar
     8    26    27   ar
     9    27    22    1
    10    22    23    2
    11    22    24   am
    12    24     1    1
    13     2     1    1
    14     2     3    1
    15     3     4    1
    16     4     5    1
    17     5     6    1
    18     6     8    1
    19     8     9    1
    20     9    10    1
    21    10    11   ar
    22    11    12   ar
    23    12    13   ar
    24    13    14   ar
    25    14    16    1
    26    16    17   ar
    27    17    18   ar
    28    18    19   ar
    29    19    20   ar
    30    20    21   ar
    31    14    15   ar
    32    24    39    1
    33    39    40    1
    34    39    41    1
    35    27    28   ar
    36    28    29   ar
    37    29    30   ar
    38    30    31    1
    39    31    32    1
    40    30    25   ar
    41     6     2    1
    42    15    10   ar
    43    21    16   ar
    44     4     7    1
@<TRIPOS>MOLECULE
*****
 41 44 0 0 0
SMALL
GASTEIGER

@<TRIPOS>ATOM
      1 C          62.0584   88.2298    9.8153 C.3     1  UNL1        0.0974
      2 C          60.9583   88.8574   10.6189 C.3     1  UNL1        0.0642
      3 C          59.5560   88.3407   10.7484 C.3     1  UNL1        0.0728
      4 N          58.7983   89.2759   11.6436 N.3     1  UNL1       -0.2953
      5 C          59.7323   90.3705   12.0674 C.3     1  UNL1        0.0986
      6 C          61.0672   90.1118   11.4340 C.3     1  UNL1        0.1342
      7 H          58.4605   88.7723   12.4638 H       1  UNL1        0.1233
      8 O          62.2954   90.9589   11.5888 O.3     1  UNL1       -0.3500
      9 C          63.3965   90.5225   12.5090 C.3     1  UNL1        0.1685
     10 C          64.5493   91.4408   12.7878 C.ar    1  UNL1        0.0073
     11 C          65.2864   91.3451   14.0906 C.ar    1  UNL1       -0.0019
     12 C          66.4392   92.2635   14.3694 C.ar    1  UNL1       -0.0002
     13 C          66.8548   93.2776   13.3453 C.ar    1  UNL1       -0.0000
     14 C          66.1177   93.3734   12.0425 C.ar    1  UNL1       -0.0002
     15 C          64.9649   92.4550   11.7637 C.ar    1  UNL1       -0.0019
     16 C          66.5333   94.3875   11.0184 C.ar    1  UNL1       -0.0000
     17 C          66.2134   95.8382   11.2266 C.ar    1  UNL1       -0.0000
     18 C          66.6291   96.8523   10.2025 C.ar    1  UNL1       -0.0000
     19 C          67.3646   96.4159    8.9702 C.ar    1  UNL1        0.0000
     20 C          67.6845   94.9653    8.7621 C.ar    1  UNL1       -0.0000
     21 C          67.2689   93.9511    9.7861 C.ar    1  UNL1       -0.0000
     22 C          62.7568   86.0370   11.0211 C.2     1  UNL1        0.2491
     23 O          63.1229   86.8256   12.2433 O.2     1  UNL1       -0.2699
     24 N          62.2246   86.7390    9.8070 N.am    1  UNL1       -0.2776
     25 C          62.3610   82.2141   12.0105 C.ar    1  UNL1        0.1723
     26 C          62.1949   83.7048   12.0188 C.ar    1  UNL1        0.0446
     27 C          62.9229   84.5461   11.0128 C.ar    1  UNL1        0.0568
     28 C          63.8170   83.8968    9.9985 C.ar    1  UNL1        0.0078
     29 C          63.9831   82.4061    9.9902 C.ar    1  UNL1        0.0402
     30 C          63.2551   81.5647   10.9962 C.ar    1  UNL1        0.1724
     31 O          63.4212   80.0739   10.9879 O.3     1  UNL1       -0.4684
     32 C          62.8663   79.2638    9.8540 C.3     1  UNL1        0.2526
     33 O          61.6329   81.3727   13.0165 O.3     1  UNL1       -0.4723
     34 C          61.7065   81.7157   14.4749 C.3     1  UNL1        0.2082
     35 C          62.7546   82.6680   14.9695 C.3     1  UNL1        0.0794
     36 C          62.3501   83.9734   15.5879 C.3     1  UNL1        0.1461
     37 C          64.5111   85.2726   14.9618 C.3     1  UNL1        0.1741
     38 O          63.0253   85.2445   15.1657 O.3     1  UNL1       -0.3510
     39 C          61.8585   85.9503    8.5847 C.3     1  UNL1        0.0757
     40 C          62.9316   85.3020    7.7613 C.3     1  UNL1        0.0215
     41 C          60.4193   85.8100    8.1859 C.3     1  UNL1        0.0215
@<TRIPOS>BOND
     1    37    38    1
     2    38    36    1
     3    36    35    1
     4    35    34    1
     5    34    33    1
     6    33    25    1
     7    25    26   ar
     8    26    27   ar
     9    27    22    1
    10    22    23    2
    11    22    24   am
    12    24     1    1
    13     2     1    1
    14     2     3    1
    15     3     4    1
    16     4     5    1
    17     5     6    1
    18     6     8    1
    19     8     9    1
    20     9    10    1
    21    10    11   ar
    22    11    12   ar
    23    12    13   ar
    24    13    14   ar
    25    14    16    1
    26    16    17   ar
    27    17    18   ar
    28    18    19   ar
    29    19    20   ar
    30    20    21   ar
    31    14    15   ar
    32    24    39    1
    33    39    40    1
    34    39    41    1
    35    27    28   ar
    36    28    29   ar
    37    29    30   ar
    38    30    31    1
    39    31    32    1
    40    30    25   ar
    41     6     2    1
    42    15    10   ar
    43    21    16   ar
    44     4     7    1
@<TRIPOS>MOLECULE
*****
 41 44 0 0 0
SMALL
GASTEIGER

@<TRIPOS>ATOM
      1 C          62.0682   88.1632    9.8041 C.3     1  UNL1        0.0974
      2 C          60.9772   88.7999   10.6130 C.3     1  UNL1        0.0642
      3 C          59.8469   88.0817   11.2887 C.3     1  UNL1        0.0728
      4 N          58.9960   89.1045   11.9815 N.3     1  UNL1       -0.2953
      5 C          59.6004   90.4548   11.7340 C.3     1  UNL1        0.0986
      6 C          60.8249   90.2666   10.8882 C.3     1  UNL1        0.1342
      7 H          58.9726   88.9141   12.9833 H       1  UNL1        0.1233
      8 O          61.7369   91.3541   10.4029 O.3     1  UNL1       -0.3500
      9 C          63.2233   91.1555   10.4330 C.3     1  UNL1        0.1685
     10 C          63.9473   91.1084   11.7458 C.ar    1  UNL1        0.0073
     11 C          65.0237   92.1092   12.0451 C.ar    1  UNL1       -0.0019
     12 C          65.7477   92.0621   13.3579 C.ar    1  UNL1       -0.0002
     13 C          65.3953   91.0141   14.3716 C.ar    1  UNL1       -0.0000
     14 C          64.3189   90.0132   14.0723 C.ar    1  UNL1       -0.0002
     15 C          63.5949   90.0603   12.7595 C.ar    1  UNL1       -0.0019
     16 C          63.9665   88.9652   15.0860 C.ar    1  UNL1       -0.0000
     17 C          64.3428   87.5331   14.8460 C.ar    1  UNL1       -0.0000
     18 C          63.9904   86.4851   15.8596 C.ar    1  UNL1       -0.0000
     19 C          63.2618   86.8690   17.1132 C.ar    1  UNL1        0.0000
     20 C          62.8855   88.3011   17.3532 C.ar    1  UNL1       -0.0000
     21 C          63.2379   89.3491   16.3396 C.ar    1  UNL1       -0.0000
     22 C          62.7406   85.9631   11.0112 C.2     1  UNL1        0.2491
     23 O          63.1058   86.7471   12.2368 O.2     1  UNL1       -0.2699
     24 N          62.2218   86.6712    9.7949 N.am    1  UNL1       -0.2776
     25 C          62.2634   82.1382   11.9561 C.ar    1  UNL1        0.1723
     26 C          62.1098   83.6303   11.9653 C.ar    1  UNL1        0.0446
     27 C          62.8943   84.4710   11.0020 C.ar    1  UNL1        0.0568
     28 C          63.8323   83.8196   10.0295 C.ar    1  UNL1        0.0078
     29 C          63.9859   82.3276   10.0203 C.ar    1  UNL1        0.0402
     30 C          63.2014   81.4869   10.9836 C.ar    1  UNL1        0.1724
     31 O          63.3551   79.9947   10.9743 O.3     1  UNL1       -0.4684
     32 C          62.8604   79.1971    9.8042 C.3     1  UNL1        0.2526
     33 O          61.4790   81.2976   12.9193 O.3     1  UNL1       -0.4723
     34 C          61.7217   81.4229   14.3942 C.3     1  UNL1        0.2082
     35 C          61.9590   82.7730   15.0032 C.3     1  UNL1        0.0794
     36 C          63.3530   83.2049   15.3498 C.3     1  UNL1        0.1461
     37 C          65.1724   84.0732   13.7109 C.3     1  UNL1        0.1741
     38 O          64.4806   82.9336   14.3984 O.3     1  UNL1       -0.3510
     39 C          61.8567   85.8871    8.5693 C.3     1  UNL1        0.0757
     40 C          62.9301   85.2398    7.7456 C.3     1  UNL1        0.0215
     41 C          60.4179   85.7504    8.1675 C.3     1  UNL1        0.0215
@<TRIPOS>BOND
     1    37    38    1
     2    38    36    1
     3    36    35    1
     4    35    34    1
     5    34    33    1
     6    33    25    1
     7    25    26   ar
     8    26    27   ar
     9    27    22    1
    10    22    23    2
    11    22    24   am
    12    24     1    1
    13     2     1    1
    14     2     3    1
    15     3     4    1
    16     4     5    1
    17     5     6    1
    18     6     8    1
    19     8     9    1
    20     9    10    1
    21    10    11   ar
    22    11    12   ar
    23    12    13   ar
    24    13    14   ar
    25    14    16    1
    26    16    17   ar
    27    17    18   ar
    28    18    19   ar
    29    19    20   ar
    30    20    21   ar
    31    14    15   ar
    32    24    39    1
    33    39    40    1
    34    39    41    1
    35    27    28   ar
    36    28    29   ar
    37    29    30   ar
    38    30    31    1
    39    31    32    1
    40    30    25   ar
    41     6     2    1
    42    15    10   ar
    43    21    16   ar
    44     4     7    1
@<TRIPOS>MOLECULE
*****
 41 44 0 0 0
SMALL
GASTEIGER

@<TRIPOS>ATOM
      1 C          63.8516   83.9681   12.0011 C.3     1  UNL1        0.0974
      2 C          63.2659   82.7336   12.6199 C.3     1  UNL1        0.0642
      3 C          63.0346   81.4241   11.9259 C.3     1  UNL1        0.0728
      4 N          62.4345   80.4730   12.9185 N.3     1  UNL1       -0.2953
      5 C          62.2949   81.1947   14.2260 C.3     1  UNL1        0.0986
      6 C          62.8088   82.5918   14.0415 C.3     1  UNL1        0.1342
      7 H          63.0435   79.6629   13.0335 H       1  UNL1        0.1233
      8 O          62.8570   83.6596   15.0938 O.3     1  UNL1       -0.3500
      9 C          64.0069   84.6218   15.1340 C.3     1  UNL1        0.1685
     10 C          63.7828   86.0410   15.5648 C.ar    1  UNL1        0.0073
     11 C          63.1963   86.3313   16.9145 C.ar    1  UNL1       -0.0019
     12 C          62.9722   87.7506   17.3453 C.ar    1  UNL1       -0.0002
     13 C          63.3346   88.8794   16.4264 C.ar    1  UNL1       -0.0000
     14 C          63.9211   88.5891   15.0767 C.ar    1  UNL1       -0.0002
     15 C          64.1453   87.1698   14.6459 C.ar    1  UNL1       -0.0019
     16 C          64.2836   89.7179   14.1579 C.ar    1  UNL1       -0.0000
     17 C          63.5151   89.9265   12.8867 C.ar    1  UNL1       -0.0000
     18 C          63.8775   91.0554   11.9678 C.ar    1  UNL1       -0.0000
     19 C          65.0084   91.9757   12.3201 C.ar    1  UNL1        0.0000
     20 C          65.7768   91.7671   13.5913 C.ar    1  UNL1       -0.0000
     21 C          65.4144   90.6382   14.5101 C.ar    1  UNL1       -0.0000
     22 C          61.9939   85.6485   11.3116 C.2     1  UNL1        0.2491
     23 O          61.6479   85.8587   12.7559 O.2     1  UNL1       -0.2699
     24 N          63.0957   84.7032   10.9342 N.am    1  UNL1       -0.2776
     25 C          60.4017   88.6160    9.2120 C.ar    1  UNL1        0.1723
     26 C          61.1576   87.8810   10.2789 C.ar    1  UNL1        0.0446
     27 C          61.2380   86.3835   10.2446 C.ar    1  UNL1        0.0568
     28 C          60.5625   85.6211    9.1435 C.ar    1  UNL1        0.0078
     29 C          59.8067   86.3562    8.0766 C.ar    1  UNL1        0.0402
     30 C          59.7263   87.8537    8.1109 C.ar    1  UNL1        0.1724
     31 O          58.9704   88.5887    7.0439 O.3     1  UNL1       -0.4684
     32 C          59.6293   89.7082    6.2939 C.3     1  UNL1        0.2526
     33 O          60.3213   90.1135    9.2462 O.3     1  UNL1       -0.4723
     34 C          60.4291   90.8407   10.5537 C.3     1  UNL1        0.2082
     35 C          59.3284   90.7295   11.5666 C.3     1  UNL1        0.0794
     36 C          59.4478   89.7541   12.7000 C.3     1  UNL1        0.1461
     37 C          57.3587   88.3808   13.4069 C.3     1  UNL1        0.1741
     38 O          58.6644   88.4752   12.6746 O.3     1  UNL1       -0.3510
     39 C          63.4416   84.4930    9.4898 C.3     1  UNL1        0.0757
     40 C          63.8151   83.1255    8.9994 C.3     1  UNL1        0.0215
     41 C          63.4140   85.6502    8.5359 C.3     1  UNL1        0.0215
@<TRIPOS>BOND
     1    37    38    1
     2    38    36    1
     3    36    35    1
     4    35    34    1
     5    34    33    1
     6    33    25    1
     7    25    26   ar
     8    26    27   ar
     9    27    22    1
    10    22    23    2
    11    22    24   am
    12    24     1    1
    13     2     1    1
    14     2     3    1
    15     3     4    1
    16     4     5    1
    17     5     6    1
    18     6     8    1
    19     8     9    1
    20     9    10    1
    21    10    11   ar
    22    11    12   ar
    23    12    13   ar
    24    13    14   ar
    25    14    16    1
    26    16    17   ar
    27    17    18   ar
    28    18    19   ar
    29    19    20   ar
    30    20    21   ar
    31    14    15   ar
    32    24    39    1
    33    39    40    1
    34    39    41    1
    35    27    28   ar
    36    28    29   ar
    37    29    30   ar
    38    30    31    1
    39    31    32    1
    40    30    25   ar
    41     6     2    1
    42    15    10   ar
    43    21    16   ar
    44     4     7    1
@<TRIPOS>MOLECULE
*****
 41 44 0 0 0
SMALL
GASTEIGER

@<TRIPOS>ATOM
      1 C          62.9553   85.9663   12.9134 C.3     1  UNL1        0.0974
      2 C          63.3397   84.5461   13.2052 C.3     1  UNL1        0.0642
      3 C          63.0123   83.7829   14.4543 C.3     1  UNL1        0.0728
      4 N          63.5893   82.4048   14.3203 N.3     1  UNL1       -0.2953
      5 C          64.2733   82.3162   12.9882 C.3     1  UNL1        0.0986
      6 C          64.1190   83.6396   12.2991 C.3     1  UNL1        0.1342
      7 H          62.8438   81.7107   14.3734 H       1  UNL1        0.1233
      8 O          64.6508   83.9942   10.9421 O.3     1  UNL1       -0.3500
      9 C          63.9333   83.5282    9.7101 C.3     1  UNL1        0.1685
     10 C          62.9756   84.4446    9.0079 C.ar    1  UNL1        0.0073
     11 C          62.6176   84.1982    7.5723 C.ar    1  UNL1       -0.0019
     12 C          61.6600   85.1147    6.8701 C.ar    1  UNL1       -0.0002
     13 C          61.0603   86.2775    7.6036 C.ar    1  UNL1       -0.0000
     14 C          61.4182   86.5240    9.0393 C.ar    1  UNL1       -0.0002
     15 C          62.3759   85.6075    9.7414 C.ar    1  UNL1       -0.0019
     16 C          60.8185   87.6868    9.7728 C.ar    1  UNL1       -0.0000
     17 C          60.1730   87.4776   11.1105 C.ar    1  UNL1       -0.0000
     18 C          59.5732   88.6405   11.8440 C.ar    1  UNL1       -0.0000
     19 C          59.6190   90.0126   11.2399 C.ar    1  UNL1        0.0000
     20 C          60.2645   90.2219    9.9021 C.ar    1  UNL1       -0.0000
     21 C          60.8642   89.0590    9.1686 C.ar    1  UNL1       -0.0000
     22 C          63.5611   88.4823   13.1429 C.2     1  UNL1        0.2491
     23 O          62.9238   88.7571   11.8132 O.2     1  UNL1       -0.2699
     24 N          63.5769   87.0869   13.6930 N.am    1  UNL1       -0.2776
     25 C          65.8284   91.6089   14.0560 C.ar    1  UNL1        0.1723
     26 C          65.2067   90.4884   13.2764 C.ar    1  UNL1        0.0446
     27 C          64.1828   89.6029   13.9226 C.ar    1  UNL1        0.0568
     28 C          63.7806   89.8379   15.3484 C.ar    1  UNL1        0.0078
     29 C          64.4022   90.9585   16.1280 C.ar    1  UNL1        0.0402
     30 C          65.4261   91.8440   15.4818 C.ar    1  UNL1        0.1724
     31 O          66.0478   92.9646   16.2615 O.3     1  UNL1       -0.4684
     32 C          67.5395   93.1189   16.2932 C.3     1  UNL1        0.2526
     33 O          66.8522   92.4944   13.4099 O.3     1  UNL1       -0.4723
     34 C          66.4196   93.7258   12.6707 C.3     1  UNL1        0.2082
     35 C          66.1231   93.6537   11.2021 C.3     1  UNL1        0.0794
     36 C          66.9168   94.4816   10.2352 C.3     1  UNL1        0.1461
     37 C          68.4376   92.5157    9.4787 C.3     1  UNL1        0.1741
     38 O          68.2361   93.9814    9.7263 O.3     1  UNL1       -0.3510
     39 C          64.2143   86.8121   15.0228 C.3     1  UNL1        0.0757
     40 C          63.4191   86.9764   16.2839 C.3     1  UNL1        0.0215
     41 C          65.6470   86.3729   15.0913 C.3     1  UNL1        0.0215
@<TRIPOS>BOND
     1    37    38    1
     2    38    36    1
     3    36    35    1
     4    35    34    1
     5    34    33    1
     6    33    25    1
     7    25    26   ar
     8    26    27   ar
     9    27    22    1
    10    22    23    2
    11    22    24   am
    12    24     1    1
    13     2     1    1
    14     2     3    1
    15     3     4    1
    16     4     5    1
    17     5     6    1
    18     6     8    1
    19     8     9    1
    20     9    10    1
    21    10    11   ar
    22    11    12   ar
    23    12    13   ar
    24    13    14   ar
    25    14    16    1
    26    16    17   ar
    27    17    18   ar
    28    18    19   ar
    29    19    20   ar
    30    20    21   ar
    31    14    15   ar
    32    24    39    1
    33    39    40    1
    34    39    41    1
    35    27    28   ar
    36    28    29   ar
    37    29    30   ar
    38    30    31    1
    39    31    32    1
    40    30    25   ar
    41     6     2    1
    42    15    10   ar
    43    21    16   ar
    44     4     7    1
@<TRIPOS>MOLECULE
*****
 41 44 0 0 0
SMALL
GASTEIGER

@<TRIPOS>ATOM
      1 C          63.9957   87.0344   14.3304 C.3     1  UNL1        0.0974
      2 C          63.5713   87.3687   15.7297 C.3     1  UNL1        0.0642
      3 C          63.3805   86.3905   16.8507 C.3     1  UNL1        0.0728
      4 N          62.9545   87.1572   18.0675 N.3     1  UNL1       -0.2953
      5 C          62.8820   88.6093   17.6986 C.3     1  UNL1        0.0986
      6 C          63.2632   88.7400   16.2537 C.3     1  UNL1        0.1342
      7 H          63.6342   87.0238   18.8162 H       1  UNL1        0.1233
      8 O          63.3254   90.0177   15.4705 O.3     1  UNL1       -0.3500
      9 C          64.4898   90.2858   14.5638 C.3     1  UNL1        0.1685
     10 C          64.2538   90.7497   13.1570 C.ar    1  UNL1        0.0073
     11 C          63.0602   90.2556   12.3946 C.ar    1  UNL1       -0.0019
     12 C          62.8242   90.7196   10.9878 C.ar    1  UNL1       -0.0002
     13 C          63.7818   91.6775   10.3434 C.ar    1  UNL1       -0.0000
     14 C          64.9754   92.1716   11.1057 C.ar    1  UNL1       -0.0002
     15 C          65.2114   91.7076   12.5125 C.ar    1  UNL1       -0.0019
     16 C          65.9330   93.1295   10.4613 C.ar    1  UNL1       -0.0000
     17 C          65.5459   94.5670   10.2771 C.ar    1  UNL1       -0.0000
     18 C          66.5035   95.5249    9.6327 C.ar    1  UNL1       -0.0000
     19 C          67.8482   95.0455    9.1724 C.ar    1  UNL1        0.0000
     20 C          68.2353   93.6081    9.3566 C.ar    1  UNL1       -0.0000
     21 C          67.2777   92.6501   10.0010 C.ar    1  UNL1       -0.0000
     22 C          63.0557   85.2013   12.7473 C.2     1  UNL1        0.2491
     23 O          62.1582   86.2167   12.1044 O.2     1  UNL1       -0.2699
     24 N          63.9745   85.6101   13.8603 N.am    1  UNL1       -0.2776
     25 C          62.3042   81.3067   12.6152 C.ar    1  UNL1        0.1723
     26 C          62.3254   82.7309   13.0853 C.ar    1  UNL1        0.0446
     27 C          63.0345   83.7769   12.2772 C.ar    1  UNL1        0.0568
     28 C          63.7225   83.3987   10.9991 C.ar    1  UNL1        0.0078
     29 C          63.7013   81.9744   10.5290 C.ar    1  UNL1        0.0402
     30 C          62.9921   80.9284   11.3371 C.ar    1  UNL1        0.1724
     31 O          62.9710   79.5041   10.8670 O.3     1  UNL1       -0.4684
     32 C          62.8546   79.1992    9.4030 C.3     1  UNL1        0.2526
     33 O          61.5951   80.2607   13.4233 O.3     1  UNL1       -0.4723
     34 C          60.4129   80.6377   14.2661 C.3     1  UNL1        0.2082
     35 C          59.2486   79.6998   14.3873 C.3     1  UNL1        0.0794
     36 C          57.9597   80.1779   14.9878 C.3     1  UNL1        0.1461
     37 C          56.5377   80.4749   17.1417 C.3     1  UNL1        0.1741
     38 O          57.5389   79.6936   16.3436 O.3     1  UNL1       -0.3510
     39 C          64.8721   84.5946   14.5031 C.3     1  UNL1        0.0757
     40 C          66.3613   84.7251   14.3799 C.3     1  UNL1        0.0215
     41 C          64.2803   83.4488   15.2692 C.3     1  UNL1        0.0215
@<TRIPOS>BOND
     1    37    38    1
     2    38    36    1
     3    36    35    1
     4    35    34    1
     5    34    33    1
     6    33    25    1
     7    25    26   ar
     8    26    27   ar
     9    27    22    1
    10    22    23    2
    11    22    24   am
    12    24     1    1
    13     2     1    1
    14     2     3    1
    15     3     4    1
    16     4     5    1
    17     5     6    1
    18     6     8    1
    19     8     9    1
    20     9    10    1
    21    10    11   ar
    22    11    12   ar
    23    12    13   ar
    24    13    14   ar
    25    14    16    1
    26    16    17   ar
    27    17    18   ar
    28    18    19   ar
    29    19    20   ar
    30    20    21   ar
    31    14    15   ar
    32    24    39    1
    33    39    40    1
    34    39    41    1
    35    27    28   ar
    36    28    29   ar
    37    29    30   ar
    38    30    31    1
    39    31    32    1
    40    30    25   ar
    41     6     2    1
    42    15    10   ar
    43    21    16   ar
    44     4     7    1
@<TRIPOS>MOLECULE
*****
 41 44 0 0 0
SMALL
GASTEIGER

@<TRIPOS>ATOM
      1 C          64.1431   86.8641   14.3646 C.3     1  UNL1        0.0974
      2 C          63.6393   87.1871   15.7400 C.3     1  UNL1        0.0642
      3 C          63.3874   86.2001   16.8411 C.3     1  UNL1        0.0728
      4 N          62.8914   86.9568   18.0375 N.3     1  UNL1       -0.2953
      5 C          62.8366   88.4115   17.6758 C.3     1  UNL1        0.0986
      6 C          63.2988   88.5538   16.2559 C.3     1  UNL1        0.1342
      7 H          63.5278   86.8190   18.8225 H       1  UNL1        0.1233
      8 O          63.4024   89.8375   15.4870 O.3     1  UNL1       -0.3500
      9 C          64.4696   90.0044   14.4463 C.3     1  UNL1        0.1685
     10 C          64.0968   90.3833   13.0436 C.ar    1  UNL1        0.0073
     11 C          64.6064   91.6641   12.4521 C.ar    1  UNL1       -0.0019
     12 C          64.2336   92.0430   11.0495 C.ar    1  UNL1       -0.0002
     13 C          63.3511   91.1412   10.2383 C.ar    1  UNL1       -0.0000
     14 C          62.8415   89.8604   10.8299 C.ar    1  UNL1       -0.0002
     15 C          63.2143   89.4815   12.2325 C.ar    1  UNL1       -0.0019
     16 C          61.9590   88.9586   10.0187 C.ar    1  UNL1       -0.0000
     17 C          60.6202   89.4445    9.5481 C.ar    1  UNL1       -0.0000
     18 C          59.7378   88.5426    8.7369 C.ar    1  UNL1       -0.0000
     19 C          60.1940   87.1549    8.3964 C.ar    1  UNL1        0.0000
     20 C          61.5328   86.6690    8.8671 C.ar    1  UNL1       -0.0000
     21 C          62.4153   87.5709    9.6782 C.ar    1  UNL1       -0.0000
     22 C          63.1326   85.0488   12.8046 C.2     1  UNL1        0.2491
     23 O          62.1839   86.0633   12.2384 O.2     1  UNL1       -0.2699
     24 N          64.1122   85.4492   13.8676 N.am    1  UNL1       -0.2776
     25 C          62.3473   81.1643   12.5945 C.ar    1  UNL1        0.1723
     26 C          62.3782   82.5792   13.0914 C.ar    1  UNL1        0.0446
     27 C          63.1018   83.6338   12.3076 C.ar    1  UNL1        0.0568
     28 C          63.7946   83.2734   11.0270 C.ar    1  UNL1        0.0078
     29 C          63.7638   81.8584   10.5301 C.ar    1  UNL1        0.0402
     30 C          63.0402   80.8039   11.3139 C.ar    1  UNL1        0.1724
     31 O          63.0094   79.3889   10.8169 O.3     1  UNL1       -0.4684
     32 C          62.8198   79.1114    9.3550 C.3     1  UNL1        0.2526
     33 O          61.6237   80.1098   13.3782 O.3     1  UNL1       -0.4723
     34 C          60.6032   80.5055   14.4038 C.3     1  UNL1        0.2082
     35 C          59.1433   80.2990   14.1278 C.3     1  UNL1        0.0794
     36 C          58.2710   79.6429   15.1568 C.3     1  UNL1        0.1461
     37 C          56.7097   79.9422   17.2117 C.3     1  UNL1        0.1741
     38 O          57.2663   80.4567   15.9173 O.3     1  UNL1       -0.3510
     39 C          65.0610   84.4345   14.4338 C.3     1  UNL1        0.0757
     40 C          64.5308   83.2465   15.1802 C.3     1  UNL1        0.0215
     41 C          66.5400   84.6081   14.2533 C.3     1  UNL1        0.0215
@<TRIPOS>BOND
     1    37    38    1
     2    38    36    1
     3    36    35    1
     4    35    34    1
     5    34    33    1
     6    33    25    1
     7    25    26   ar
     8    26    27   ar
     9    27    22    1
    10    22    23    2
    11    22    24   am
    12    24     1    1
    13     2     1    1
    14     2     3    1
    15     3     4    1
    16     4     5    1
    17     5     6    1
    18     6     8    1
    19     8     9    1
    20     9    10    1
    21    10    11   ar
    22    11    12   ar
    23    12    13   ar
    24    13    14   ar
    25    14    16    1
    26    16    17   ar
    27    17    18   ar
    28    18    19   ar
    29    19    20   ar
    30    20    21   ar
    31    14    15   ar
    32    24    39    1
    33    39    40    1
    34    39    41    1
    35    27    28   ar
    36    28    29   ar
    37    29    30   ar
    38    30    31    1
    39    31    32    1
    40    30    25   ar
    41     6     2    1
    42    15    10   ar
    43    21    16   ar
    44     4     7    1
@<TRIPOS>MOLECULE
*****
 41 44 0 0 0
SMALL
GASTEIGER

@<TRIPOS>ATOM
      1 C          64.3738   86.9732   14.7861 C.3     1  UNL1        0.0974
      2 C          63.6392   87.0239   16.0929 C.3     1  UNL1        0.0642
      3 C          63.2187   85.8414   16.9145 C.3     1  UNL1        0.0728
      4 N          62.5157   86.3527   18.1370 N.3     1  UNL1       -0.2953
      5 C          62.5016   87.8512   18.0709 C.3     1  UNL1        0.0986
      6 C          63.1959   88.2660   16.8076 C.3     1  UNL1        0.1342
      7 H          63.0116   86.0478   18.9745 H       1  UNL1        0.1233
      8 O          63.4095   89.6754   16.3410 O.3     1  UNL1       -0.3500
      9 C          63.9465   89.9367   14.9651 C.3     1  UNL1        0.1685
     10 C          64.9279   91.0490   14.7416 C.ar    1  UNL1        0.0073
     11 C          65.4328   91.8488   15.9058 C.ar    1  UNL1       -0.0019
     12 C          66.4142   92.9610   15.6824 C.ar    1  UNL1       -0.0002
     13 C          66.8906   93.2734   14.2948 C.ar    1  UNL1       -0.0000
     14 C          66.3856   92.4736   13.1306 C.ar    1  UNL1       -0.0002
     15 C          65.4043   91.3614   13.3541 C.ar    1  UNL1       -0.0019
     16 C          66.8620   92.7860   11.7430 C.ar    1  UNL1       -0.0000
     17 C          66.3531   94.0047   11.0319 C.ar    1  UNL1       -0.0000
     18 C          66.8295   94.3172    9.6443 C.ar    1  UNL1       -0.0000
     19 C          67.8148   93.4109    8.9678 C.ar    1  UNL1        0.0000
     20 C          68.3238   92.1922    9.6789 C.ar    1  UNL1       -0.0000
     21 C          67.8474   91.8798   11.0665 C.ar    1  UNL1       -0.0000
     22 C          64.5588   84.5934   13.7603 C.2     1  UNL1        0.2491
     23 O          65.5412   84.2099   14.8270 O.2     1  UNL1       -0.2699
     24 N          63.9752   85.9750   13.7399 N.am    1  UNL1       -0.2776
     25 C          63.8308   82.9650   10.2151 C.ar    1  UNL1        0.1723
     26 C          64.2295   83.9631   11.2614 C.ar    1  UNL1        0.0446
     27 C          64.1601   83.5952   12.7139 C.ar    1  UNL1        0.0568
     28 C          63.6920   82.2293   13.1202 C.ar    1  UNL1        0.0078
     29 C          63.2934   81.2312   12.0738 C.ar    1  UNL1        0.0402
     30 C          63.3628   81.5991   10.6213 C.ar    1  UNL1        0.1724
     31 O          62.9641   80.6009    9.5749 O.3     1  UNL1       -0.4684
     32 C          62.8573   79.1469    9.9275 C.3     1  UNL1        0.2526
     33 O          63.9002   83.3329    8.7625 O.3     1  UNL1       -0.4723
     34 C          62.8681   84.2457    8.1699 C.3     1  UNL1        0.2082
     35 C          62.8140   85.6863    8.5846 C.3     1  UNL1        0.0794
     36 C          61.4890   86.3680    8.7566 C.3     1  UNL1        0.1461
     37 C          59.0819   86.8354    7.8979 C.3     1  UNL1        0.1741
     38 O          60.3506   86.0375    7.8375 O.3     1  UNL1       -0.3510
     39 C          62.9928   86.3585   12.6731 C.3     1  UNL1        0.0757
     40 C          63.0822   87.7061   12.0205 C.3     1  UNL1        0.0215
     41 C          61.9210   85.3943   12.2589 C.3     1  UNL1        0.0215
@<TRIPOS>BOND
     1    37    38    1
     2    38    36    1
     3    36    35    1
     4    35    34    1
     5    34    33    1
     6    33    25    1
     7    25    26   ar
     8    26    27   ar
     9    27    22    1
    10    22    23    2
    11    22    24   am
    12    24     1    1
    13     2     1    1
    14     2     3    1
    15     3     4    1
    16     4     5    1
    17     5     6    1
    18     6     8    1
    19     8     9    1
    20     9    10    1
    21    10    11   ar
    22    11    12   ar
    23    12    13   ar
    24    13    14   ar
    25    14    16    1
    26    16    17   ar
    27    17    18   ar
    28    18    19   ar
    29    19    20   ar
    30    20    21   ar
    31    14    15   ar
    32    24    39    1
    33    39    40    1
    34    39    41    1
    35    27    28   ar
    36    28    29   ar
    37    29    30   ar
    38    30    31    1
    39    31    32    1
    40    30    25   ar
    41     6     2    1
    42    15    10   ar
    43    21    16   ar
    44     4     7    1
@<TRIPOS>MOLECULE
*****
 41 44 0 0 0
SMALL
GASTEIGER

@<TRIPOS>ATOM
      1 C          64.1136   83.5714   11.9747 C.3     1  UNL1        0.0974
      2 C          63.4369   82.3312   12.4787 C.3     1  UNL1        0.0642
      3 C          62.7599   81.2916   11.6356 C.3     1  UNL1        0.0728
      4 N          62.2230   80.2307   12.5501 N.3     1  UNL1       -0.2953
      5 C          62.5682   80.6147   13.9585 C.3     1  UNL1        0.0986
      6 C          63.3185   81.9129   13.9143 C.3     1  UNL1        0.1342
      7 H          62.6466   79.3311   12.3229 H       1  UNL1        0.1233
      8 O          63.8559   82.6613   15.0979 O.3     1  UNL1       -0.3500
      9 C          64.4290   84.0358   14.9191 C.3     1  UNL1        0.1685
     10 C          63.8452   85.1955   15.6705 C.ar    1  UNL1        0.0073
     11 C          62.8942   84.9520   16.8046 C.ar    1  UNL1       -0.0019
     12 C          62.3104   86.1116   17.5560 C.ar    1  UNL1       -0.0002
     13 C          62.6777   87.5147   17.1732 C.ar    1  UNL1       -0.0000
     14 C          63.6287   87.7581   16.0391 C.ar    1  UNL1       -0.0002
     15 C          64.2125   86.5985   15.2877 C.ar    1  UNL1       -0.0019
     16 C          63.9960   89.1612   15.6563 C.ar    1  UNL1       -0.0000
     17 C          64.7113   89.4233   14.3642 C.ar    1  UNL1       -0.0000
     18 C          65.0786   90.8263   13.9814 C.ar    1  UNL1       -0.0000
     19 C          64.7306   91.9674   14.8907 C.ar    1  UNL1        0.0000
     20 C          64.0153   91.7053   16.1829 C.ar    1  UNL1       -0.0000
     21 C          63.6480   90.3022   16.5656 C.ar    1  UNL1       -0.0000
     22 C          62.4369   85.5361   11.6945 C.2     1  UNL1        0.2491
     23 O          62.2523   85.5907   13.1821 O.2     1  UNL1       -0.2699
     24 N          63.3675   84.5264   11.0908 N.am    1  UNL1       -0.2776
     25 C          61.1795   88.9225   10.0509 C.ar    1  UNL1        0.1723
     26 C          61.9256   87.9674   10.9347 C.ar    1  UNL1        0.0446
     27 C          61.6907   86.4911   10.8106 C.ar    1  UNL1        0.0568
     28 C          60.7098   85.9699    9.8026 C.ar    1  UNL1        0.0078
     29 C          59.9638   86.9249    8.9188 C.ar    1  UNL1        0.0402
     30 C          60.1986   88.4012    9.0429 C.ar    1  UNL1        0.1724
     31 O          59.4525   89.3562    8.1590 O.3     1  UNL1       -0.4684
     32 C          59.2811   89.0505    6.7005 C.3     1  UNL1        0.2526
     33 O          61.4144   90.3988   10.1750 O.3     1  UNL1       -0.4723
     34 C          62.5386   90.9104   11.0260 C.3     1  UNL1        0.2082
     35 C          63.8496   91.2766   10.3957 C.3     1  UNL1        0.0794
     36 C          64.5092   92.5792   10.7397 C.3     1  UNL1        0.1461
     37 C          67.0428   92.5559   11.3144 C.3     1  UNL1        0.1741
     38 O          65.9340   92.8266   10.3412 O.3     1  UNL1       -0.3510
     39 C          63.5520   84.4718    9.6032 C.3     1  UNL1        0.0757
     40 C          63.4384   85.7250    8.7868 C.3     1  UNL1        0.0215
     41 C          63.8502   83.1639    8.9319 C.3     1  UNL1        0.0215
@<TRIPOS>BOND
     1    37    38    1
     2    38    36    1
     3    36    35    1
     4    35    34    1
     5    34    33    1
     6    33    25    1
     7    25    26   ar
     8    26    27   ar
     9    27    22    1
    10    22    23    2
    11    22    24   am
    12    24     1    1
    13     2     1    1
    14     2     3    1
    15     3     4    1
    16     4     5    1
    17     5     6    1
    18     6     8    1
    19     8     9    1
    20     9    10    1
    21    10    11   ar
    22    11    12   ar
    23    12    13   ar
    24    13    14   ar
    25    14    16    1
    26    16    17   ar
    27    17    18   ar
    28    18    19   ar
    29    19    20   ar
    30    20    21   ar
    31    14    15   ar
    32    24    39    1
    33    39    40    1
    34    39    41    1
    35    27    28   ar
    36    28    29   ar
    37    29    30   ar
    38    30    31    1
    39    31    32    1
    40    30    25   ar
    41     6     2    1
    42    15    10   ar
    43    21    16   ar
    44     4     7    1
