@<TRIPOS>MOLECULE
*****
 35 39 0 0 0
SMALL
GASTEIGER

@<TRIPOS>ATOM
      1 C          63.5739   89.4493   13.1793 C.3     1  UNL1        0.1412
      2 N          64.4503   90.6323   12.8922 N.3     1  UNL1       -0.2630
      3 C          65.4348   90.9888   13.9663 C.3     1  UNL1        0.0742
      4 C          66.4385   92.1035   13.9825 C.3     1  UNL1        0.0347
      5 C          66.7055   93.1368   12.9286 C.3     1  UNL1        0.0735
      6 N          66.0349   93.3109   11.5982 N.3     1  UNL1       -0.2727
      7 C          64.9315   92.4945   10.9932 C.3     1  UNL1        0.0896
      8 C          64.2263   91.3024   11.5691 C.3     1  UNL1        0.0902
      9 C          66.5335   94.4523   10.7624 C.3     1  UNL1        0.0575
     10 C          66.4472   95.9473   10.8489 C.3     1  UNL1        0.0160
     11 C          67.2386   96.0665    9.5803 C.3     1  UNL1        0.0028
     12 C          67.3250   94.5714    9.4937 C.3     1  UNL1        0.0160
     13 C          61.7312   87.1379    9.7865 C.ar    1  UNL1        0.0533
     14 C          61.7372   88.6375    9.7562 C.ar    1  UNL1        0.0042
     15 C          62.3515   89.4081   10.8872 C.ar    1  UNL1       -0.0024
     16 C          62.9597   88.6789   12.0484 C.ar    1  UNL1       -0.0005
     17 C          62.9536   87.1791   12.0786 C.ar    1  UNL1       -0.0024
     18 C          62.3394   86.4087   10.9476 C.ar    1  UNL1        0.0042
     19 C          61.3638   84.7366    6.6482 C.3     1  UNL1        0.1109
     20 N          61.9781   85.5070    7.7791 N.am    1  UNL1       -0.2992
     21 C          61.1169   86.3674    8.6555 C.2     1  UNL1        0.2459
     22 O          59.6414   86.4574    8.4009 O.2     1  UNL1       -0.2701
     23 H          62.9466   85.4479    7.9462 H       1  UNL1        0.1498
     24 C          63.3118   89.0368   14.5974 C.ar    1  UNL1        0.1798
     25 N          62.4962   89.7975   15.6006 N.ar    1  UNL1       -0.1110
     26 N          62.4996   89.0220   16.8845 N.ar    1  UNL1       -0.0229
     27 N          63.3173   87.7821   16.6750 N.ar    1  UNL1       -0.0428
     28 N          63.8193   87.7912   15.2615 N.ar    1  UNL1       -0.2108
     29 C          64.6780   86.7395   14.6240 C.3     1  UNL1        0.1570
     30 C          64.1744   85.3316   14.5035 C.ar    1  UNL1        0.0022
     31 C          64.7303   84.4241   13.4465 C.ar    1  UNL1       -0.0023
     32 C          64.2268   83.0163   13.3260 C.ar    1  UNL1       -0.0003
     33 C          63.1672   82.5161   14.2626 C.ar    1  UNL1       -0.0000
     34 C          62.6112   83.4237   15.3196 C.ar    1  UNL1       -0.0003
     35 C          63.1148   84.8315   15.4401 C.ar    1  UNL1       -0.0023
@<TRIPOS>BOND
     1    19    20    1
     2    20    21   am
     3    21    22    2
     4    21    13    1
     5    13    14   ar
     6    14    15   ar
     7    15    16   ar
     8    16     1    1
     9     1    24    1
    10    24    25   ar
    11    25    26   ar
    12    26    27   ar
    13    27    28   ar
    14    28    29    1
    15    29    30    1
    16    30    31   ar
    17    31    32   ar
    18    32    33   ar
    19    33    34   ar
    20    34    35   ar
    21     1     2    1
    22     2     3    1
    23     3     4    1
    24     4     5    1
    25     5     6    1
    26     6     9    1
    27     9    10    1
    28    10    11    1
    29    11    12    1
    30     6     7    1
    31     7     8    1
    32    16    17   ar
    33    17    18   ar
    34    18    13   ar
    35    28    24   ar
    36    35    30   ar
    37     8     2    1
    38    12     9    1
    39    20    23    1
@<TRIPOS>MOLECULE
*****
 35 39 0 0 0
SMALL
GASTEIGER

@<TRIPOS>ATOM
      1 C          62.8918   88.8231   12.7816 C.3     1  UNL1        0.1412
      2 N          63.2050   87.3813   13.0521 N.3     1  UNL1       -0.2630
      3 C          64.1936   87.1252   14.1509 C.3     1  UNL1        0.0742
      4 C          64.7096   85.8107   14.6571 C.3     1  UNL1        0.0347
      5 C          64.3645   84.4280   14.1895 C.3     1  UNL1        0.0735
      6 N          63.4182   84.0179   13.1002 N.3     1  UNL1       -0.2727
      7 C          62.5833   84.8895   12.2096 C.3     1  UNL1        0.0896
      8 C          62.4885   86.3864   12.1883 C.3     1  UNL1        0.0902
      9 C          63.2899   82.5411   12.8714 C.3     1  UNL1        0.0575
     10 C          63.6215   81.3120   13.6649 C.3     1  UNL1        0.0160
     11 C          63.1084   80.4524   12.5478 C.3     1  UNL1        0.0028
     12 C          62.7768   81.6814   11.7543 C.3     1  UNL1        0.0160
     13 C          65.8052   92.0266   14.0060 C.ar    1  UNL1        0.0533
     14 C          65.1242   92.1024   12.6717 C.ar    1  UNL1        0.0042
     15 C          64.1531   91.0346   12.2635 C.ar    1  UNL1       -0.0024
     16 C          63.8629   89.8909   13.1897 C.ar    1  UNL1       -0.0005
     17 C          64.5440   89.8151   14.5242 C.ar    1  UNL1       -0.0024
     18 C          65.5151   90.8830   14.9322 C.ar    1  UNL1        0.0042
     19 C          68.9022   93.8236   15.7177 C.3     1  UNL1        0.1109
     20 N          67.9311   92.7557   15.3096 N.am    1  UNL1       -0.2992
     21 C          66.7764   93.0945   14.4142 C.2     1  UNL1        0.2459
     22 O          66.5928   94.5012   13.9268 O.2     1  UNL1       -0.2701
     23 H          68.0516   91.8324   15.6295 H       1  UNL1        0.1498
     24 C          61.6074   89.1969   12.1030 C.ar    1  UNL1        0.1798
     25 N          60.3983   89.7860   12.7672 N.ar    1  UNL1       -0.1110
     26 N          59.3502   90.0005   11.7158 N.ar    1  UNL1       -0.0229
     27 N          59.9116   89.5440   10.4018 N.ar    1  UNL1       -0.0428
     28 N          61.3066   89.0474   10.6411 N.ar    1  UNL1       -0.2108
     29 C          62.2373   88.4977    9.6012 C.3     1  UNL1        0.1570
     30 C          61.8432   87.2885    8.8058 C.ar    1  UNL1        0.0022
     31 C          62.8505   86.2121    8.5287 C.ar    1  UNL1       -0.0023
     32 C          62.4565   85.0030    7.7333 C.ar    1  UNL1       -0.0003
     33 C          61.0551   84.8703    7.2150 C.ar    1  UNL1       -0.0000
     34 C          60.0478   85.9467    7.4921 C.ar    1  UNL1       -0.0003
     35 C          60.4419   87.1559    8.2875 C.ar    1  UNL1       -0.0023
@<TRIPOS>BOND
     1    19    20    1
     2    20    21   am
     3    21    22    2
     4    21    13    1
     5    13    14   ar
     6    14    15   ar
     7    15    16   ar
     8    16     1    1
     9     1    24    1
    10    24    25   ar
    11    25    26   ar
    12    26    27   ar
    13    27    28   ar
    14    28    29    1
    15    29    30    1
    16    30    31   ar
    17    31    32   ar
    18    32    33   ar
    19    33    34   ar
    20    34    35   ar
    21     1     2    1
    22     2     3    1
    23     3     4    1
    24     4     5    1
    25     5     6    1
    26     6     9    1
    27     9    10    1
    28    10    11    1
    29    11    12    1
    30     6     7    1
    31     7     8    1
    32    16    17   ar
    33    17    18   ar
    34    18    13   ar
    35    28    24   ar
    36    35    30   ar
    37     8     2    1
    38    12     9    1
    39    20    23    1
@<TRIPOS>MOLECULE
*****
 35 39 0 0 0
SMALL
GASTEIGER

@<TRIPOS>ATOM
      1 C          62.5013   89.3671   12.3514 C.3     1  UNL1        0.1412
      2 N          63.0361   88.0450   12.8162 N.3     1  UNL1       -0.2630
      3 C          63.9685   88.0966   13.9902 C.3     1  UNL1        0.0742
      4 C          64.6629   86.9619   14.6836 C.3     1  UNL1        0.0347
      5 C          64.5964   85.4958   14.3741 C.3     1  UNL1        0.0735
      6 N          63.8193   84.8019   13.2949 N.3     1  UNL1       -0.2727
      7 C          62.9165   85.4030   12.2587 C.3     1  UNL1        0.0896
      8 C          62.5681   86.8463   12.0457 C.3     1  UNL1        0.0902
      9 C          63.9640   83.3098   13.2455 C.3     1  UNL1        0.0575
     10 C          63.6269   82.1801   14.1730 C.3     1  UNL1        0.0160
     11 C          64.1686   81.1995   13.1756 C.3     1  UNL1        0.0028
     12 C          64.5057   82.3291   12.2480 C.3     1  UNL1        0.0160
     13 C          65.3352   92.7254   11.3816 C.ar    1  UNL1        0.0533
     14 C          65.2485   92.1985   12.7833 C.ar    1  UNL1        0.0042
     15 C          64.3038   91.0790   13.1066 C.ar    1  UNL1       -0.0024
     16 C          63.4460   90.4865   12.0282 C.ar    1  UNL1       -0.0005
     17 C          63.5327   91.0136   10.6264 C.ar    1  UNL1       -0.0024
     18 C          64.4773   92.1330   10.3032 C.ar    1  UNL1        0.0042
     19 C          66.7531   96.3866   10.8026 C.3     1  UNL1        0.1109
     20 N          65.8084   95.2673   11.1259 N.am    1  UNL1       -0.2992
     21 C          66.2799   93.8449   11.0583 C.2     1  UNL1        0.2459
     22 O          67.6961   93.5419   10.6676 O.2     1  UNL1       -0.2701
     23 H          64.8789   95.4661   11.3823 H       1  UNL1        0.1498
     24 C          61.0218   89.5697   12.2099 C.ar    1  UNL1        0.1798
     25 N          60.0493   89.7799   13.3325 N.ar    1  UNL1       -0.1110
     26 N          58.6815   89.9378   12.7374 N.ar    1  UNL1       -0.0229
     27 N          58.8087   89.8253   11.2471 N.ar    1  UNL1       -0.0428
     28 N          60.2550   89.5978   10.9210 N.ar    1  UNL1       -0.2108
     29 C          60.8331   89.4282    9.5474 C.3     1  UNL1        0.1570
     30 C          60.7587   88.0963    8.8615 C.ar    1  UNL1        0.0022
     31 C          61.9243   87.1543    8.9240 C.ar    1  UNL1       -0.0023
     32 C          61.8499   85.8224    8.2381 C.ar    1  UNL1       -0.0003
     33 C          60.6097   85.4324    7.4898 C.ar    1  UNL1       -0.0000
     34 C          59.4441   86.3744    7.4273 C.ar    1  UNL1       -0.0003
     35 C          59.5185   87.7064    8.1132 C.ar    1  UNL1       -0.0023
@<TRIPOS>BOND
     1    19    20    1
     2    20    21   am
     3    21    22    2
     4    21    13    1
     5    13    14   ar
     6    14    15   ar
     7    15    16   ar
     8    16     1    1
     9     1    24    1
    10    24    25   ar
    11    25    26   ar
    12    26    27   ar
    13    27    28   ar
    14    28    29    1
    15    29    30    1
    16    30    31   ar
    17    31    32   ar
    18    32    33   ar
    19    33    34   ar
    20    34    35   ar
    21     1     2    1
    22     2     3    1
    23     3     4    1
    24     4     5    1
    25     5     6    1
    26     6     9    1
    27     9    10    1
    28    10    11    1
    29    11    12    1
    30     6     7    1
    31     7     8    1
    32    16    17   ar
    33    17    18   ar
    34    18    13   ar
    35    28    24   ar
    36    35    30   ar
    37     8     2    1
    38    12     9    1
    39    20    23    1
@<TRIPOS>MOLECULE
*****
 35 39 0 0 0
SMALL
GASTEIGER

@<TRIPOS>ATOM
      1 C          62.5908   88.8462   12.4804 C.3     1  UNL1        0.1412
      2 N          63.6698   89.8550   12.7414 N.3     1  UNL1       -0.2630
      3 C          63.8732   90.8827   11.6678 C.3     1  UNL1        0.0742
      4 C          64.8598   92.0121   11.6292 C.3     1  UNL1        0.0347
      5 C          65.8864   92.3925   12.6544 C.3     1  UNL1        0.0735
      6 N          66.1801   91.7378   13.9716 N.3     1  UNL1       -0.2727
      7 C          65.5197   90.5407   14.5889 C.3     1  UNL1        0.0896
      8 C          64.4025   89.7029   14.0413 C.3     1  UNL1        0.0902
      9 C          67.2796   92.3626   14.7782 C.3     1  UNL1        0.0575
     10 C          67.3468   93.1262   16.0677 C.3     1  UNL1        0.0160
     11 C          68.8345   93.2464   15.9190 C.3     1  UNL1        0.0028
     12 C          68.7674   92.4828   14.6296 C.3     1  UNL1        0.0160
     13 C          63.5121   84.4490   12.7367 C.ar    1  UNL1        0.0533
     14 C          64.1231   85.4018   13.7208 C.ar    1  UNL1        0.0042
     15 C          63.8160   86.8676   13.6355 C.ar    1  UNL1       -0.0024
     16 C          62.8979   87.3805   12.5658 C.ar    1  UNL1       -0.0005
     17 C          62.2870   86.4275   11.5816 C.ar    1  UNL1       -0.0024
     18 C          62.5941   84.9618   11.6670 C.ar    1  UNL1        0.0042
     19 C          63.3752   80.6488   13.8724 C.3     1  UNL1        0.1109
     20 N          63.0680   82.1145   13.7870 N.am    1  UNL1       -0.2992
     21 C          63.8192   82.9832   12.8221 C.2     1  UNL1        0.2459
     22 O          64.8776   82.3862   11.9426 O.2     1  UNL1       -0.2701
     23 H          62.3734   82.5063   14.3642 H       1  UNL1        0.1498
     24 C          61.2048   89.3031   12.1339 C.ar    1  UNL1        0.1798
     25 N          60.1385   89.7034   13.1101 N.ar    1  UNL1       -0.1110
     26 N          58.9164   90.0876   12.3299 N.ar    1  UNL1       -0.0229
     27 N          59.2273   89.9249   10.8716 N.ar    1  UNL1       -0.0428
     28 N          60.6416   89.4400   10.7504 N.ar    1  UNL1       -0.2108
     29 C          61.3656   89.1440    9.4705 C.3     1  UNL1        0.1570
     30 C          61.1268   87.8466    8.7565 C.ar    1  UNL1        0.0022
     31 C          62.2334   86.8408    8.6385 C.ar    1  UNL1       -0.0023
     32 C          61.9947   85.5434    7.9245 C.ar    1  UNL1       -0.0003
     33 C          60.6493   85.2518    7.3286 C.ar    1  UNL1       -0.0000
     34 C          59.5428   86.2575    7.4467 C.ar    1  UNL1       -0.0003
     35 C          59.7815   87.5550    8.1607 C.ar    1  UNL1       -0.0023
@<TRIPOS>BOND
     1    19    20    1
     2    20    21   am
     3    21    22    2
     4    21    13    1
     5    13    14   ar
     6    14    15   ar
     7    15    16   ar
     8    16     1    1
     9     1    24    1
    10    24    25   ar
    11    25    26   ar
    12    26    27   ar
    13    27    28   ar
    14    28    29    1
    15    29    30    1
    16    30    31   ar
    17    31    32   ar
    18    32    33   ar
    19    33    34   ar
    20    34    35   ar
    21     1     2    1
    22     2     3    1
    23     3     4    1
    24     4     5    1
    25     5     6    1
    26     6     9    1
    27     9    10    1
    28    10    11    1
    29    11    12    1
    30     6     7    1
    31     7     8    1
    32    16    17   ar
    33    17    18   ar
    34    18    13   ar
    35    28    24   ar
    36    35    30   ar
    37     8     2    1
    38    12     9    1
    39    20    23    1
@<TRIPOS>MOLECULE
*****
 35 39 0 0 0
SMALL
GASTEIGER

@<TRIPOS>ATOM
      1 C          62.6276   89.3146   12.3120 C.3     1  UNL1        0.1412
      2 N          63.6708   90.3881   12.2156 N.3     1  UNL1       -0.2630
      3 C          64.4742   90.6285   13.4594 C.3     1  UNL1        0.0742
      4 C          65.5779   91.6195   13.6830 C.3     1  UNL1        0.0347
      5 C          66.1508   92.6146   12.7180 C.3     1  UNL1        0.0735
      6 N          65.7616   92.8649   11.2912 N.3     1  UNL1       -0.2727
      7 C          64.7033   92.1815   10.4768 C.3     1  UNL1        0.0896
      8 C          63.7729   91.0793   10.8883 C.3     1  UNL1        0.0902
      9 C          66.5326   93.9406   10.5853 C.3     1  UNL1        0.0575
     10 C          67.5293   93.9699    9.4647 C.3     1  UNL1        0.0160
     11 C          67.6231   95.4619    9.5870 C.3     1  UNL1        0.0028
     12 C          66.6264   95.4327   10.7076 C.3     1  UNL1        0.0160
     13 C          63.8060   85.1296   13.4727 C.ar    1  UNL1        0.0533
     14 C          64.2995   86.2974   14.2744 C.ar    1  UNL1        0.0042
     15 C          63.9067   87.6924   13.8875 C.ar    1  UNL1       -0.0024
     16 C          63.0205   87.9196   12.6989 C.ar    1  UNL1       -0.0005
     17 C          62.5270   86.7518   11.8971 C.ar    1  UNL1       -0.0024
     18 C          62.9198   85.3569   12.2840 C.ar    1  UNL1        0.0042
     19 C          64.1121   81.1730   13.4349 C.3     1  UNL1        0.1109
     20 N          63.7193   82.5679   13.0479 N.am    1  UNL1       -0.2992
     21 C          64.1989   83.7346   13.8596 C.2     1  UNL1        0.2459
     22 O          65.0713   83.5063   15.0583 O.2     1  UNL1       -0.2701
     23 H          63.1467   82.7178   12.2612 H       1  UNL1        0.1498
     24 C          61.1916   89.6361   12.0214 C.ar    1  UNL1        0.1798
     25 N          60.1505   90.0139   13.0332 N.ar    1  UNL1       -0.1110
     26 N          58.8600   90.2476   12.3052 N.ar    1  UNL1       -0.0229
     27 N          59.1035   90.0142   10.8436 N.ar    1  UNL1       -0.0428
     28 N          60.5445   89.6363   10.6682 N.ar    1  UNL1       -0.2108
     29 C          61.2198   89.3150    9.3679 C.3     1  UNL1        0.1570
     30 C          61.0189   87.9722    8.7302 C.ar    1  UNL1        0.0022
     31 C          59.7188   87.6495    8.0553 C.ar    1  UNL1       -0.0023
     32 C          59.5178   86.3068    7.4175 C.ar    1  UNL1       -0.0003
     33 C          60.6171   85.2868    7.4547 C.ar    1  UNL1       -0.0000
     34 C          61.9172   85.6096    8.1296 C.ar    1  UNL1       -0.0003
     35 C          62.1181   86.9523    8.7674 C.ar    1  UNL1       -0.0023
@<TRIPOS>BOND
     1    19    20    1
     2    20    21   am
     3    21    22    2
     4    21    13    1
     5    13    14   ar
     6    14    15   ar
     7    15    16   ar
     8    16     1    1
     9     1    24    1
    10    24    25   ar
    11    25    26   ar
    12    26    27   ar
    13    27    28   ar
    14    28    29    1
    15    29    30    1
    16    30    31   ar
    17    31    32   ar
    18    32    33   ar
    19    33    34   ar
    20    34    35   ar
    21     1     2    1
    22     2     3    1
    23     3     4    1
    24     4     5    1
    25     5     6    1
    26     6     9    1
    27     9    10    1
    28    10    11    1
    29    11    12    1
    30     6     7    1
    31     7     8    1
    32    16    17   ar
    33    17    18   ar
    34    18    13   ar
    35    28    24   ar
    36    35    30   ar
    37     8     2    1
    38    12     9    1
    39    20    23    1
@<TRIPOS>MOLECULE
*****
 35 39 0 0 0
SMALL
GASTEIGER

@<TRIPOS>ATOM
      1 C          62.9358   88.7054   12.5112 C.3     1  UNL1        0.1412
      2 N          63.2797   87.3388   13.0253 N.3     1  UNL1       -0.2630
      3 C          64.2834   87.2961   14.1392 C.3     1  UNL1        0.0742
      4 C          64.8297   86.0997   14.8605 C.3     1  UNL1        0.0347
      5 C          64.5073   84.6506   14.6459 C.3     1  UNL1        0.0735
      6 N          63.5589   84.0399   13.6572 N.3     1  UNL1       -0.2727
      7 C          62.6987   84.7276   12.6387 C.3     1  UNL1        0.0896
      8 C          62.5745   86.1958   12.3576 C.3     1  UNL1        0.0902
      9 C          63.4573   82.5438   13.6914 C.3     1  UNL1        0.0575
     10 C          64.3124   81.4112   13.2055 C.3     1  UNL1        0.0160
     11 C          63.3136   80.4279   13.7397 C.3     1  UNL1        0.0028
     12 C          62.4584   81.5604   14.2257 C.3     1  UNL1        0.0160
     13 C          60.3902   89.1487    8.8270 C.ar    1  UNL1        0.0533
     14 C          60.1857   90.0674    9.9949 C.ar    1  UNL1        0.0042
     15 C          61.0342   89.9197   11.2231 C.ar    1  UNL1       -0.0024
     16 C          62.0873   88.8532   11.2832 C.ar    1  UNL1       -0.0005
     17 C          62.2918   87.9344   10.1152 C.ar    1  UNL1       -0.0024
     18 C          61.4432   88.0822    8.8872 C.ar    1  UNL1        0.0042
     19 C          58.9413   90.5770    5.4197 C.3     1  UNL1        0.1109
     20 N          59.7898   90.4293    6.6477 N.am    1  UNL1       -0.2992
     21 C          59.5416   89.2965    7.5989 C.2     1  UNL1        0.2459
     22 O          58.4448   88.3113    7.3223 O.2     1  UNL1       -0.2701
     23 H          60.5097   91.0759    6.8293 H       1  UNL1        0.1498
     24 C          63.4405   89.9241   13.2252 C.ar    1  UNL1        0.1798
     25 N          63.2871   90.2154   14.6887 N.ar    1  UNL1       -0.1110
     26 N          63.9391   91.5369   14.9691 N.ar    1  UNL1       -0.0229
     27 N          64.4954   92.0623   13.6790 N.ar    1  UNL1       -0.0428
     28 N          64.1873   91.0656   12.6012 N.ar    1  UNL1       -0.2108
     29 C          64.5605   91.1887   11.1536 C.3     1  UNL1        0.1570
     30 C          65.5010   92.2701   10.7109 C.ar    1  UNL1        0.0022
     31 C          66.8770   91.9167   10.2296 C.ar    1  UNL1       -0.0023
     32 C          67.8175   92.9980    9.7869 C.ar    1  UNL1       -0.0003
     33 C          67.3820   94.4329    9.8254 C.ar    1  UNL1       -0.0000
     34 C          66.0059   94.7864   10.3066 C.ar    1  UNL1       -0.0003
     35 C          65.0654   93.7050   10.7494 C.ar    1  UNL1       -0.0023
@<TRIPOS>BOND
     1    19    20    1
     2    20    21   am
     3    21    22    2
     4    21    13    1
     5    13    14   ar
     6    14    15   ar
     7    15    16   ar
     8    16     1    1
     9     1    24    1
    10    24    25   ar
    11    25    26   ar
    12    26    27   ar
    13    27    28   ar
    14    28    29    1
    15    29    30    1
    16    30    31   ar
    17    31    32   ar
    18    32    33   ar
    19    33    34   ar
    20    34    35   ar
    21     1     2    1
    22     2     3    1
    23     3     4    1
    24     4     5    1
    25     5     6    1
    26     6     9    1
    27     9    10    1
    28    10    11    1
    29    11    12    1
    30     6     7    1
    31     7     8    1
    32    16    17   ar
    33    17    18   ar
    34    18    13   ar
    35    28    24   ar
    36    35    30   ar
    37     8     2    1
    38    12     9    1
    39    20    23    1
@<TRIPOS>MOLECULE
*****
 35 39 0 0 0
SMALL
GASTEIGER

@<TRIPOS>ATOM
      1 C          63.4002   90.4164   12.9311 C.3     1  UNL1        0.1412
      2 N          62.4147   89.6680   12.0833 N.3     1  UNL1       -0.2630
      3 C          60.9725   89.8356   12.4604 C.3     1  UNL1        0.0742
      4 C          59.7611   89.2276   11.8178 C.3     1  UNL1        0.0347
      5 C          59.6927   88.3018   10.6397 C.3     1  UNL1        0.0735
      6 N          60.8187   87.7553    9.8129 N.3     1  UNL1       -0.2727
      7 C          62.2913   87.9997    9.9603 C.3     1  UNL1        0.0896
      8 C          63.0015   88.8510   10.9708 C.3     1  UNL1        0.0902
      9 C          60.4194   86.8440    8.6905 C.3     1  UNL1        0.0575
     10 C          61.0708   85.7017    7.9687 C.3     1  UNL1        0.0160
     11 C          59.8546   85.5551    7.1031 C.3     1  UNL1        0.0028
     12 C          59.2031   86.6974    7.8247 C.3     1  UNL1        0.0160
     13 C          66.1710   93.4172   11.0425 C.ar    1  UNL1        0.0533
     14 C          65.0030   92.8833   10.2675 C.ar    1  UNL1        0.0042
     15 C          64.0793   91.8830   10.8970 C.ar    1  UNL1       -0.0024
     16 C          64.3237   91.4166   12.3016 C.ar    1  UNL1       -0.0005
     17 C          65.4918   91.9506   13.0766 C.ar    1  UNL1       -0.0024
     18 C          66.4154   92.9509   12.4470 C.ar    1  UNL1        0.0042
     19 C          67.6058   96.8560    9.6764 C.3     1  UNL1        0.1109
     20 N          66.6822   95.8558   10.3060 N.am    1  UNL1       -0.2992
     21 C          67.0946   94.4176   10.4129 C.2     1  UNL1        0.2459
     22 O          68.4307   93.9796    9.8903 O.2     1  UNL1       -0.2701
     23 H          65.8053   96.1432   10.6490 H       1  UNL1        0.1498
     24 C          63.4620   90.1644   14.4085 C.ar    1  UNL1        0.1798
     25 N          63.0175   91.1112   15.4838 N.ar    1  UNL1       -0.1110
     26 N          63.2600   90.4534   16.8098 N.ar    1  UNL1       -0.0229
     27 N          63.8544   89.1001   16.5542 N.ar    1  UNL1       -0.0428
     28 N          63.9793   88.9215   15.0701 N.ar    1  UNL1       -0.2108
     29 C          64.5254   87.7123   14.3704 C.3     1  UNL1        0.1570
     30 C          63.8288   86.3905   14.5030 C.ar    1  UNL1        0.0022
     31 C          63.4064   85.6389   13.2756 C.ar    1  UNL1       -0.0023
     32 C          62.7098   84.3172   13.4081 C.ar    1  UNL1       -0.0003
     33 C          62.4356   83.7470   14.7682 C.ar    1  UNL1       -0.0000
     34 C          62.8580   84.4986   15.9957 C.ar    1  UNL1       -0.0003
     35 C          63.5546   85.8204   15.8631 C.ar    1  UNL1       -0.0023
@<TRIPOS>BOND
     1    19    20    1
     2    20    21   am
     3    21    22    2
     4    21    13    1
     5    13    14   ar
     6    14    15   ar
     7    15    16   ar
     8    16     1    1
     9     1    24    1
    10    24    25   ar
    11    25    26   ar
    12    26    27   ar
    13    27    28   ar
    14    28    29    1
    15    29    30    1
    16    30    31   ar
    17    31    32   ar
    18    32    33   ar
    19    33    34   ar
    20    34    35   ar
    21     1     2    1
    22     2     3    1
    23     3     4    1
    24     4     5    1
    25     5     6    1
    26     6     9    1
    27     9    10    1
    28    10    11    1
    29    11    12    1
    30     6     7    1
    31     7     8    1
    32    16    17   ar
    33    17    18   ar
    34    18    13   ar
    35    28    24   ar
    36    35    30   ar
    37     8     2    1
    38    12     9    1
    39    20    23    1
@<TRIPOS>MOLECULE
*****
 35 39 0 0 0
SMALL
GASTEIGER

@<TRIPOS>ATOM
      1 C          63.4950   88.9999   14.3884 C.3     1  UNL1        0.1412
      2 N          62.7309   88.7723   13.1178 N.3     1  UNL1       -0.2630
      3 C          61.8052   89.8792   12.7080 C.3     1  UNL1        0.0742
      4 C          60.9135   89.9551   11.5041 C.3     1  UNL1        0.0347
      5 C          60.7272   88.9430   10.4130 C.3     1  UNL1        0.0735
      6 N          61.3866   87.6048   10.2560 N.3     1  UNL1       -0.2727
      7 C          62.3951   86.9484   11.1516 C.3     1  UNL1        0.0896
      8 C          62.9934   87.4681   12.4252 C.3     1  UNL1        0.0902
      9 C          60.9842   86.8192    9.0433 C.3     1  UNL1        0.0575
     10 C          61.6709   85.8401    8.1378 C.3     1  UNL1        0.0160
     11 C          60.4152   85.7082    7.3281 C.3     1  UNL1        0.0028
     12 C          59.7284   86.6873    8.2334 C.3     1  UNL1        0.0160
     13 C          66.2758   92.5201   14.7419 C.ar    1  UNL1        0.0533
     14 C          66.2331   91.7226   13.4723 C.ar    1  UNL1        0.0042
     15 C          65.3062   90.5492   13.3544 C.ar    1  UNL1       -0.0024
     16 C          64.4219   90.1733   14.5062 C.ar    1  UNL1       -0.0005
     17 C          64.4646   90.9709   15.7760 C.ar    1  UNL1       -0.0024
     18 C          65.3915   92.1443   15.8938 C.ar    1  UNL1        0.0042
     19 C          69.2633   94.8316   15.9590 C.3     1  UNL1        0.1109
     20 N          68.3365   93.6582   15.8412 N.am    1  UNL1       -0.2992
     21 C          67.2027   93.6936   14.8597 C.2     1  UNL1        0.2459
     22 O          66.9959   94.9024   13.9960 O.2     1  UNL1       -0.2701
     23 H          68.4722   92.8648   16.4081 H       1  UNL1        0.1498
     24 C          63.3321   88.0541   15.5412 C.ar    1  UNL1        0.1798
     25 N          62.7092   88.3785   16.8666 N.ar    1  UNL1       -0.1110
     26 N          62.7556   87.1427   17.7155 N.ar    1  UNL1       -0.0229
     27 N          63.4073   86.0545   16.9147 N.ar    1  UNL1       -0.0428
     28 N          63.7636   86.6178   15.5709 N.ar    1  UNL1       -0.2108
     29 C          64.4337   85.8751   14.4531 C.3     1  UNL1        0.1570
     30 C          63.9156   84.5333   14.0276 C.ar    1  UNL1        0.0022
     31 C          62.8108   83.8762   14.8007 C.ar    1  UNL1       -0.0023
     32 C          62.2927   82.5344   14.3751 C.ar    1  UNL1       -0.0003
     33 C          62.8795   81.8496   13.1764 C.ar    1  UNL1       -0.0000
     34 C          63.9843   82.5067   12.4033 C.ar    1  UNL1       -0.0003
     35 C          64.5024   83.8486   12.8289 C.ar    1  UNL1       -0.0023
@<TRIPOS>BOND
     1    19    20    1
     2    20    21   am
     3    21    22    2
     4    21    13    1
     5    13    14   ar
     6    14    15   ar
     7    15    16   ar
     8    16     1    1
     9     1    24    1
    10    24    25   ar
    11    25    26   ar
    12    26    27   ar
    13    27    28   ar
    14    28    29    1
    15    29    30    1
    16    30    31   ar
    17    31    32   ar
    18    32    33   ar
    19    33    34   ar
    20    34    35   ar
    21     1     2    1
    22     2     3    1
    23     3     4    1
    24     4     5    1
    25     5     6    1
    26     6     9    1
    27     9    10    1
    28    10    11    1
    29    11    12    1
    30     6     7    1
    31     7     8    1
    32    16    17   ar
    33    17    18   ar
    34    18    13   ar
    35    28    24   ar
    36    35    30   ar
    37     8     2    1
    38    12     9    1
    39    20    23    1
@<TRIPOS>MOLECULE
*****
 35 39 0 0 0
SMALL
GASTEIGER

@<TRIPOS>ATOM
      1 C          63.4387   88.7200   13.6598 C.3     1  UNL1        0.1412
      2 N          62.7325   88.1151   12.4828 N.3     1  UNL1       -0.2630
      3 C          62.9715   86.6507   12.2626 C.3     1  UNL1        0.0742
      4 C          62.4176   85.7640   11.1868 C.3     1  UNL1        0.0347
      5 C          61.4881   86.1229   10.0657 C.3     1  UNL1        0.0735
      6 N          60.8828   87.4569    9.7432 N.3     1  UNL1       -0.2727
      7 C          61.0575   88.7616   10.4624 C.3     1  UNL1        0.0896
      8 C          61.8807   89.0544   11.6816 C.3     1  UNL1        0.0902
      9 C          59.9839   87.4907    8.5429 C.3     1  UNL1        0.0575
     10 C          59.5177   88.5570    7.5965 C.3     1  UNL1        0.0160
     11 C          58.7126   87.5385    6.8453 C.3     1  UNL1        0.0028
     12 C          59.1787   86.4720    7.7916 C.3     1  UNL1        0.0160
     13 C          65.6339   92.6217   13.2049 C.ar    1  UNL1        0.0533
     14 C          65.8372   91.7857   14.4335 C.ar    1  UNL1        0.0042
     15 C          65.1055   90.4850   14.5852 C.ar    1  UNL1       -0.0024
     16 C          64.1705   90.0205   13.5082 C.ar    1  UNL1       -0.0005
     17 C          63.9672   90.8567   12.2795 C.ar    1  UNL1       -0.0024
     18 C          64.6989   92.1573   12.1279 C.ar    1  UNL1        0.0042
     19 C          66.7413   96.1581   11.7844 C.3     1  UNL1        0.1109
     20 N          66.0095   94.8576   11.9360 N.am    1  UNL1       -0.2992
     21 C          66.3657   93.9224   13.0533 C.2     1  UNL1        0.2459
     22 O          67.4538   94.2877   14.0191 O.2     1  UNL1       -0.2701
     23 H          65.2954   94.6178   11.3021 H       1  UNL1        0.1498
     24 C          63.4131   88.0242   14.9884 C.ar    1  UNL1        0.1798
     25 N          62.8128   88.5616   16.2537 N.ar    1  UNL1       -0.1110
     26 N          63.0120   87.5384   17.3323 N.ar    1  UNL1       -0.0229
     27 N          63.7355   86.3687   16.7337 N.ar    1  UNL1       -0.0428
     28 N          63.9834   86.6689   15.2851 N.ar    1  UNL1       -0.2108
     29 C          64.6793   85.7715   14.3052 C.3     1  UNL1        0.1570
     30 C          64.1425   84.3972   14.0344 C.ar    1  UNL1        0.0022
     31 C          62.9515   83.8940   14.7948 C.ar    1  UNL1       -0.0023
     32 C          62.4146   82.5198   14.5241 C.ar    1  UNL1       -0.0003
     33 C          63.0689   81.6488   13.4929 C.ar    1  UNL1       -0.0000
     34 C          64.2599   82.1520   12.7324 C.ar    1  UNL1       -0.0003
     35 C          64.7967   83.5263   13.0032 C.ar    1  UNL1       -0.0023
@<TRIPOS>BOND
     1    19    20    1
     2    20    21   am
     3    21    22    2
     4    21    13    1
     5    13    14   ar
     6    14    15   ar
     7    15    16   ar
     8    16     1    1
     9     1    24    1
    10    24    25   ar
    11    25    26   ar
    12    26    27   ar
    13    27    28   ar
    14    28    29    1
    15    29    30    1
    16    30    31   ar
    17    31    32   ar
    18    32    33   ar
    19    33    34   ar
    20    34    35   ar
    21     1     2    1
    22     2     3    1
    23     3     4    1
    24     4     5    1
    25     5     6    1
    26     6     9    1
    27     9    10    1
    28    10    11    1
    29    11    12    1
    30     6     7    1
    31     7     8    1
    32    16    17   ar
    33    17    18   ar
    34    18    13   ar
    35    28    24   ar
    36    35    30   ar
    37     8     2    1
    38    12     9    1
    39    20    23    1
