@<TRIPOS>MOLECULE
*****
 28 29 0 0 0
SMALL
GASTEIGER

@<TRIPOS>ATOM
      1 C          61.7702   88.9948   10.6259 C.2     1  UNL1        0.2271
      2 O          60.6460   88.6620   11.5617 O.2     1  UNL1       -0.2747
      3 N          62.3417   87.9337    9.7329 N.am    1  UNL1       -0.3005
      4 H          63.0795   88.1520    9.1187 H       1  UNL1        0.1497
      5 C          61.7891   86.5398    9.7757 C.3     1  UNL1        0.1119
      6 C          60.6532   86.1554    8.8746 C.3     1  UNL1        0.0278
      7 C          62.3723   85.5304   10.7196 C.ar    1  UNL1        0.0770
      8 C          63.1690   84.3770   10.1857 C.ar    1  UNL1        0.0195
      9 C          63.7522   83.3676   11.1297 C.ar    1  UNL1        0.0398
     10 C          63.5388   83.5116   12.6074 C.ar    1  UNL1        0.1580
     11 C          62.7422   84.6650   13.1412 C.ar    1  UNL1        0.1353
     12 N          62.1589   85.6744   12.1974 N.ar    1  UNL1       -0.2433
     13 O          64.1221   82.5022   13.5512 O.3     1  UNL1       -0.4650
     14 C          63.6146   81.0907   13.5472 C.3     1  UNL1        0.3082
     15 C          62.1516   80.8191   13.7370 C.3     1  UNL1        0.4380
     16 F          60.6886   80.5476   13.9267 F       1  UNL1       -0.1663
     17 F          62.2062   79.7740   12.6625 F       1  UNL1       -0.1663
     18 F          62.0969   81.8643   14.8115 F       1  UNL1       -0.1663
     19 C          62.3227   90.3886   10.5831 C.3     1  UNL1        0.1113
     20 C          65.5142   91.6342   13.5008 C.ar    1  UNL1       -0.0225
     21 C          64.5568   90.5368   13.8598 C.ar    1  UNL1       -0.0046
     22 C          63.4930   90.1216   12.8873 C.ar    1  UNL1       -0.0041
     23 C          63.3866   90.8038   11.5557 C.ar    1  UNL1       -0.0131
     24 C          64.3440   91.9012   11.1966 C.ar    1  UNL1       -0.0041
     25 C          65.4078   92.3164   12.1692 C.ar    1  UNL1       -0.0046
     26 C          66.1955   92.5541   15.8331 C.3     1  UNL1        0.0047
     27 C          66.5781   92.0494   14.4733 C.3     1  UNL1        0.0224
     28 C          68.0244   91.9600   14.0861 C.3     1  UNL1        0.0047
@<TRIPOS>BOND
     1    26    27    1
     2    27    28    1
     3    27    20    1
     4    20    21   ar
     5    21    22   ar
     6    22    23   ar
     7    23    19    1
     8    19     1    1
     9     1     2    2
    10     1     3   am
    11     3     5    1
    12     5     6    1
    13     5     7    1
    14     7     8   ar
    15     8     9   ar
    16     9    10   ar
    17    10    13    1
    18    13    14    1
    19    14    15    1
    20    15    16    1
    21    15    17    1
    22    15    18    1
    23    10    11   ar
    24    11    12   ar
    25    23    24   ar
    26    24    25   ar
    27    25    20   ar
    28    12     7   ar
    29     3     4    1
@<TRIPOS>MOLECULE
*****
 28 29 0 0 0
SMALL
GASTEIGER

@<TRIPOS>ATOM
      1 C          61.2038   88.2648    9.7251 C.2     1  UNL1        0.2271
      2 O          59.9026   87.5441    9.9189 O.2     1  UNL1       -0.2747
      3 N          62.4334   87.5003    9.3332 N.am    1  UNL1       -0.3005
      4 H          63.2875   87.9733    9.2060 H       1  UNL1        0.1497
      5 C          62.3618   86.0152    9.1352 C.3     1  UNL1        0.1119
      6 C          61.8660   85.4550    7.8350 C.3     1  UNL1        0.0278
      7 C          62.7861   85.0902   10.2372 C.ar    1  UNL1        0.0770
      8 C          63.6396   83.8963    9.9274 C.ar    1  UNL1        0.0195
      9 C          64.0639   82.9714   11.0295 C.ar    1  UNL1        0.0398
     10 C          63.6346   83.2404   12.4413 C.ar    1  UNL1        0.1580
     11 C          62.7811   84.4343   12.7511 C.ar    1  UNL1        0.1353
     12 N          62.3568   85.3592   11.6491 N.ar    1  UNL1       -0.2433
     13 O          64.0589   82.3154   13.5433 O.3     1  UNL1       -0.4650
     14 C          63.4382   80.9550   13.6612 C.3     1  UNL1        0.3082
     15 C          61.9626   80.8215   13.8956 C.3     1  UNL1        0.4380
     16 F          60.4871   80.6880   14.1299 F       1  UNL1       -0.1663
     17 F          61.9176   79.6586   12.9492 F       1  UNL1       -0.1663
     18 F          62.0077   81.9844   14.8419 F       1  UNL1       -0.1663
     19 C          61.2754   89.7499    9.9232 C.3     1  UNL1        0.1113
     20 C          64.6044   91.5360   12.3681 C.ar    1  UNL1       -0.0225
     21 C          63.7011   90.5024   12.9727 C.ar    1  UNL1       -0.0046
     22 C          62.5914   89.9070   12.1577 C.ar    1  UNL1       -0.0041
     23 C          62.3850   90.3453   10.7381 C.ar    1  UNL1       -0.0131
     24 C          63.2883   91.3790   10.1335 C.ar    1  UNL1       -0.0041
     25 C          64.3980   91.9743   10.9485 C.ar    1  UNL1       -0.0046
     26 C          66.3557   93.4165   12.7509 C.3     1  UNL1        0.0047
     27 C          65.7140   92.1314   13.1830 C.3     1  UNL1        0.0224
     28 C          66.1820   91.4417   14.4301 C.3     1  UNL1        0.0047
@<TRIPOS>BOND
     1    26    27    1
     2    27    28    1
     3    27    20    1
     4    20    21   ar
     5    21    22   ar
     6    22    23   ar
     7    23    19    1
     8    19     1    1
     9     1     2    2
    10     1     3   am
    11     3     5    1
    12     5     6    1
    13     5     7    1
    14     7     8   ar
    15     8     9   ar
    16     9    10   ar
    17    10    13    1
    18    13    14    1
    19    14    15    1
    20    15    16    1
    21    15    17    1
    22    15    18    1
    23    10    11   ar
    24    11    12   ar
    25    23    24   ar
    26    24    25   ar
    27    25    20   ar
    28    12     7   ar
    29     3     4    1
@<TRIPOS>MOLECULE
*****
 28 29 0 0 0
SMALL
GASTEIGER

@<TRIPOS>ATOM
      1 C          63.9148   88.0043   14.5788 C.2     1  UNL1        0.2271
      2 O          63.4008   89.0088   15.5672 O.2     1  UNL1       -0.2747
      3 N          63.8239   88.2850   13.1081 N.am    1  UNL1       -0.3005
      4 H          64.1612   87.6257   12.4593 H       1  UNL1        0.1497
      5 C          63.2190   89.5701   12.6258 C.3     1  UNL1        0.1119
      6 C          61.7432   89.6553   12.3710 C.3     1  UNL1        0.0278
      7 C          64.0898   90.7701   12.3983 C.ar    1  UNL1        0.0770
      8 C          64.0804   91.4622   11.0675 C.ar    1  UNL1        0.0195
      9 C          64.9513   92.6622   10.8401 C.ar    1  UNL1        0.0398
     10 C          65.8316   93.1700   11.9434 C.ar    1  UNL1        0.1580
     11 C          65.8409   92.4779   13.2741 C.ar    1  UNL1        0.1353
     12 N          64.9701   91.2780   13.5016 N.ar    1  UNL1       -0.2433
     13 O          66.7024   94.3699   11.7159 O.3     1  UNL1       -0.4650
     14 C          66.2597   95.4501   10.7740 C.3     1  UNL1        0.3082
     15 C          66.7769   95.4760    9.3662 C.3     1  UNL1        0.4380
     16 F          67.2939   95.5018    7.9584 F       1  UNL1       -0.1663
     17 F          65.6222   96.3421    8.9580 F       1  UNL1       -0.1663
     18 F          67.9315   94.6099    9.7744 F       1  UNL1       -0.1663
     19 C          64.5197   86.7193   15.0611 C.3     1  UNL1        0.1113
     20 C          62.7080   82.7837   13.8448 C.ar    1  UNL1       -0.0225
     21 C          62.3132   83.4216   15.1437 C.ar    1  UNL1       -0.0046
     22 C          62.9171   84.7335   15.5491 C.ar    1  UNL1       -0.0041
     23 C          63.9158   85.4074   14.6557 C.ar    1  UNL1       -0.0131
     24 C          64.3106   84.7695   13.3568 C.ar    1  UNL1       -0.0041
     25 C          63.7067   83.4577   12.9513 C.ar    1  UNL1       -0.0046
     26 C          60.8844   80.9577   14.1451 C.3     1  UNL1        0.0047
     27 C          62.1041   81.4719   13.4394 C.3     1  UNL1        0.0224
     28 C          62.7198   80.6742   12.3283 C.3     1  UNL1        0.0047
@<TRIPOS>BOND
     1    26    27    1
     2    27    28    1
     3    27    20    1
     4    20    21   ar
     5    21    22   ar
     6    22    23   ar
     7    23    19    1
     8    19     1    1
     9     1     2    2
    10     1     3   am
    11     3     5    1
    12     5     6    1
    13     5     7    1
    14     7     8   ar
    15     8     9   ar
    16     9    10   ar
    17    10    13    1
    18    13    14    1
    19    14    15    1
    20    15    16    1
    21    15    17    1
    22    15    18    1
    23    10    11   ar
    24    11    12   ar
    25    23    24   ar
    26    24    25   ar
    27    25    20   ar
    28    12     7   ar
    29     3     4    1
@<TRIPOS>MOLECULE
*****
 28 29 0 0 0
SMALL
GASTEIGER

@<TRIPOS>ATOM
      1 C          61.2334   88.5719    9.9029 C.2     1  UNL1        0.2271
      2 O          59.9660   87.9642   10.4269 O.2     1  UNL1       -0.2747
      3 N          62.2903   87.6966    9.2972 N.am    1  UNL1       -0.3005
      4 H          63.1221   88.0954    8.9533 H       1  UNL1        0.1497
      5 C          62.0798   86.2137    9.2155 C.3     1  UNL1        0.1119
      6 C          61.4704   85.6094    7.9853 C.3     1  UNL1        0.0278
      7 C          62.4787   85.3351   10.3639 C.ar    1  UNL1        0.0770
      8 C          63.4156   84.1855   10.1387 C.ar    1  UNL1        0.0195
      9 C          63.8145   83.3070   11.2872 C.ar    1  UNL1        0.0398
     10 C          63.2766   83.5780   12.6609 C.ar    1  UNL1        0.1580
     11 C          62.3397   84.7276   12.8862 C.ar    1  UNL1        0.1353
     12 N          61.9408   85.6061   11.7378 N.ar    1  UNL1       -0.2433
     13 O          63.6755   82.6995   13.8094 O.3     1  UNL1       -0.4650
     14 C          64.2098   83.3105   15.0708 C.3     1  UNL1        0.3082
     15 C          64.6089   84.7563   15.0932 C.3     1  UNL1        0.4380
     16 F          65.0080   86.2020   15.1157 F       1  UNL1       -0.1663
     17 F          63.4015   85.0767   15.9235 F       1  UNL1       -0.1663
     18 F          65.8164   84.4359   14.2630 F       1  UNL1       -0.1663
     19 C          61.4439   90.0548    9.9847 C.3     1  UNL1        0.1113
     20 C          64.7666   91.7193   12.5222 C.ar    1  UNL1       -0.0225
     21 C          63.7909   90.7434   13.1100 C.ar    1  UNL1       -0.0046
     22 C          62.6833   90.1885   12.2641 C.ar    1  UNL1       -0.0041
     23 C          62.5514   90.6096   10.8305 C.ar    1  UNL1       -0.0131
     24 C          63.5271   91.5856   10.2428 C.ar    1  UNL1       -0.0041
     25 C          64.6347   92.1404   11.0886 C.ar    1  UNL1       -0.0046
     26 C          66.4202   91.4701   14.5105 C.3     1  UNL1        0.0047
     27 C          65.8741   92.2742   13.3681 C.3     1  UNL1        0.0224
     28 C          66.4356   93.6331   13.0715 C.3     1  UNL1        0.0047
@<TRIPOS>BOND
     1    26    27    1
     2    27    28    1
     3    27    20    1
     4    20    21   ar
     5    21    22   ar
     6    22    23   ar
     7    23    19    1
     8    19     1    1
     9     1     2    2
    10     1     3   am
    11     3     5    1
    12     5     6    1
    13     5     7    1
    14     7     8   ar
    15     8     9   ar
    16     9    10   ar
    17    10    13    1
    18    13    14    1
    19    14    15    1
    20    15    16    1
    21    15    17    1
    22    15    18    1
    23    10    11   ar
    24    11    12   ar
    25    23    24   ar
    26    24    25   ar
    27    25    20   ar
    28    12     7   ar
    29     3     4    1
@<TRIPOS>MOLECULE
*****
 28 29 0 0 0
SMALL
GASTEIGER

@<TRIPOS>ATOM
      1 C          61.8604   88.1203    9.6470 C.2     1  UNL1        0.2271
      2 O          60.9257   89.0665    8.9533 O.2     1  UNL1       -0.2747
      3 N          62.5715   88.5495   10.8960 N.am    1  UNL1       -0.3005
      4 H          63.1849   87.9285   11.3513 H       1  UNL1        0.1497
      5 C          62.3479   89.9249   11.4514 C.3     1  UNL1        0.1119
      6 C          60.9565   90.4761   11.5517 C.3     1  UNL1        0.0278
      7 C          63.5157   90.7489   11.9065 C.ar    1  UNL1        0.0770
      8 C          64.0345   90.6057   13.3066 C.ar    1  UNL1        0.0195
      9 C          65.2024   91.4299   13.7616 C.ar    1  UNL1        0.0398
     10 C          65.8514   92.3971   12.8166 C.ar    1  UNL1        0.1580
     11 C          65.3326   92.5403   11.4164 C.ar    1  UNL1        0.1353
     12 N          64.1648   91.7162   10.9614 N.ar    1  UNL1       -0.2433
     13 O          67.0192   93.2212   13.2716 O.3     1  UNL1       -0.4650
     14 C          67.0821   93.7161   14.6862 C.3     1  UNL1        0.3082
     15 C          67.7955   92.9108   15.7315 C.3     1  UNL1        0.4380
     16 F          68.5090   92.1056   16.7767 F       1  UNL1       -0.1663
     17 F          69.0550   92.9723   14.9191 F       1  UNL1       -0.1663
     18 F          66.5361   92.8494   16.5439 F       1  UNL1       -0.1663
     19 C          62.0839   86.7450    9.0916 C.3     1  UNL1        0.1113
     20 C          63.0743   83.3355   11.8565 C.ar    1  UNL1       -0.0225
     21 C          62.2416   84.4821   12.3481 C.ar    1  UNL1       -0.0046
     22 C          61.9114   85.6186   11.4264 C.ar    1  UNL1       -0.0041
     23 C          62.4141   85.6085   10.0132 C.ar    1  UNL1       -0.0131
     24 C          63.2469   84.4618    9.5217 C.ar    1  UNL1       -0.0041
     25 C          63.5770   83.3254   10.4433 C.ar    1  UNL1       -0.0046
     26 C          64.1374   82.4617   14.0602 C.3     1  UNL1        0.0047
     27 C          63.4045   82.1990   12.7781 C.3     1  UNL1        0.0224
     28 C          63.0017   80.7998   12.4176 C.3     1  UNL1        0.0047
@<TRIPOS>BOND
     1    26    27    1
     2    27    28    1
     3    27    20    1
     4    20    21   ar
     5    21    22   ar
     6    22    23   ar
     7    23    19    1
     8    19     1    1
     9     1     2    2
    10     1     3   am
    11     3     5    1
    12     5     6    1
    13     5     7    1
    14     7     8   ar
    15     8     9   ar
    16     9    10   ar
    17    10    13    1
    18    13    14    1
    19    14    15    1
    20    15    16    1
    21    15    17    1
    22    15    18    1
    23    10    11   ar
    24    11    12   ar
    25    23    24   ar
    26    24    25   ar
    27    25    20   ar
    28    12     7   ar
    29     3     4    1
@<TRIPOS>MOLECULE
*****
 28 29 0 0 0
SMALL
GASTEIGER

@<TRIPOS>ATOM
      1 C          61.9993   89.1226   11.1302 C.2     1  UNL1        0.2271
      2 O          61.0302   90.2552   11.2985 O.2     1  UNL1       -0.2747
      3 N          63.2554   89.0824   11.9492 N.am    1  UNL1       -0.3005
      4 H          63.8914   88.3391   11.8387 H       1  UNL1        0.1497
      5 C          63.5423   90.1746   12.9365 C.3     1  UNL1        0.1119
      6 C          62.9715   90.1023   14.3218 C.3     1  UNL1        0.0278
      7 C          64.3999   91.3391   12.5385 C.ar    1  UNL1        0.0770
      8 C          64.4565   91.7732   11.1038 C.ar    1  UNL1        0.0195
      9 C          65.3142   92.9377   10.7059 C.ar    1  UNL1        0.0398
     10 C          66.1153   93.6681   11.7426 C.ar    1  UNL1        0.1580
     11 C          66.0587   93.2340   13.1773 C.ar    1  UNL1        0.1353
     12 N          65.2010   92.0695   13.5753 N.ar    1  UNL1       -0.2433
     13 O          66.9729   94.8325   11.3447 O.3     1  UNL1       -0.4650
     14 C          66.5682   95.7028   10.1919 C.3     1  UNL1        0.3082
     15 C          67.0673   95.3979    8.8106 C.3     1  UNL1        0.4380
     16 F          67.5664   95.0931    7.4293 F       1  UNL1       -0.1663
     17 F          65.9031   96.1414    8.2259 F       1  UNL1       -0.1663
     18 F          68.2315   94.6544    9.3953 F       1  UNL1       -0.1663
     19 C          61.7124   88.0305   10.1429 C.3     1  UNL1        0.1113
     20 C          63.1470   83.8408   10.9422 C.ar    1  UNL1       -0.0225
     21 C          63.2475   84.4173    9.5611 C.ar    1  UNL1       -0.0046
     22 C          62.7694   85.8139    9.2947 C.ar    1  UNL1       -0.0041
     23 C          62.1906   86.6339   10.4093 C.ar    1  UNL1       -0.0131
     24 C          62.0900   86.0574   11.7904 C.ar    1  UNL1       -0.0041
     25 C          62.5682   84.6609   12.0569 C.ar    1  UNL1       -0.0046
     26 C          63.2202   81.3257   10.2950 C.3     1  UNL1        0.0047
     27 C          63.6251   82.4443   11.2087 C.3     1  UNL1        0.0224
     28 C          64.5082   82.1663   12.3889 C.3     1  UNL1        0.0047
@<TRIPOS>BOND
     1    26    27    1
     2    27    28    1
     3    27    20    1
     4    20    21   ar
     5    21    22   ar
     6    22    23   ar
     7    23    19    1
     8    19     1    1
     9     1     2    2
    10     1     3   am
    11     3     5    1
    12     5     6    1
    13     5     7    1
    14     7     8   ar
    15     8     9   ar
    16     9    10   ar
    17    10    13    1
    18    13    14    1
    19    14    15    1
    20    15    16    1
    21    15    17    1
    22    15    18    1
    23    10    11   ar
    24    11    12   ar
    25    23    24   ar
    26    24    25   ar
    27    25    20   ar
    28    12     7   ar
    29     3     4    1
@<TRIPOS>MOLECULE
*****
 28 29 0 0 0
SMALL
GASTEIGER

@<TRIPOS>ATOM
      1 C          63.8161   87.3191   15.4721 C.2     1  UNL1        0.2271
      2 O          63.0677   88.3058   16.3185 O.2     1  UNL1       -0.2747
      3 N          64.2798   87.7080   14.0996 N.am    1  UNL1       -0.3005
      4 H          64.7710   87.0604   13.5441 H       1  UNL1        0.1497
      5 C          63.9951   89.0836   13.5736 C.3     1  UNL1        0.1119
      6 C          64.6810   90.2738   14.1761 C.3     1  UNL1        0.0278
      7 C          63.0246   89.2690   12.4450 C.ar    1  UNL1        0.0770
      8 C          62.9676   90.5765   11.7119 C.ar    1  UNL1        0.0195
      9 C          61.9970   90.7618   10.5833 C.ar    1  UNL1        0.0398
     10 C          61.0835   89.6398   10.1879 C.ar    1  UNL1        0.1580
     11 C          61.1404   88.3324   10.9210 C.ar    1  UNL1        0.1353
     12 N          62.1109   88.1470   12.0495 N.ar    1  UNL1       -0.2433
     13 O          60.1129   89.8252    9.0594 O.3     1  UNL1       -0.4650
     14 C          60.2141   88.9657    7.8342 C.3     1  UNL1        0.3082
     15 C          59.3890   87.7179    7.7233 C.3     1  UNL1        0.4380
     16 F          58.5639   86.4701    7.6124 F       1  UNL1       -0.1663
     17 F          60.5906   86.8920    8.0753 F       1  UNL1       -0.1663
     18 F          58.1873   88.5437    7.3713 F       1  UNL1       -0.1663
     19 C          64.1007   85.9435   15.9982 C.3     1  UNL1        0.1113
     20 C          63.1526   82.3328   13.4855 C.ar    1  UNL1       -0.0225
     21 C          64.3868   83.1380   13.2059 C.ar    1  UNL1       -0.0046
     22 C          64.7029   84.3416   14.0434 C.ar    1  UNL1       -0.0041
     23 C          63.7847   84.7400   15.1606 C.ar    1  UNL1       -0.0131
     24 C          62.5504   83.9347   15.4403 C.ar    1  UNL1       -0.0041
     25 C          62.2344   82.7312   14.6027 C.ar    1  UNL1       -0.0046
     26 C          62.2644   79.8993   13.2881 C.3     1  UNL1        0.0047
     27 C          62.8365   81.1292   12.6480 C.3     1  UNL1        0.0224
     28 C          63.0926   81.1556   11.1703 C.3     1  UNL1        0.0047
@<TRIPOS>BOND
     1    26    27    1
     2    27    28    1
     3    27    20    1
     4    20    21   ar
     5    21    22   ar
     6    22    23   ar
     7    23    19    1
     8    19     1    1
     9     1     2    2
    10     1     3   am
    11     3     5    1
    12     5     6    1
    13     5     7    1
    14     7     8   ar
    15     8     9   ar
    16     9    10   ar
    17    10    13    1
    18    13    14    1
    19    14    15    1
    20    15    16    1
    21    15    17    1
    22    15    18    1
    23    10    11   ar
    24    11    12   ar
    25    23    24   ar
    26    24    25   ar
    27    25    20   ar
    28    12     7   ar
    29     3     4    1
@<TRIPOS>MOLECULE
*****
 28 29 0 0 0
SMALL
GASTEIGER

@<TRIPOS>ATOM
      1 C          63.6657   87.1842   15.9893 C.2     1  UNL1        0.2271
      2 O          62.8670   87.7119   17.1442 O.2     1  UNL1       -0.2747
      3 N          64.2367   88.1323   14.9769 N.am    1  UNL1       -0.3005
      4 H          64.7609   87.7861   14.2189 H       1  UNL1        0.1497
      5 C          64.0091   89.6081   15.1194 C.3     1  UNL1        0.1119
      6 C          63.0602   90.1235   16.1606 C.3     1  UNL1        0.0278
      7 C          64.7303   90.5685   14.2208 C.ar    1  UNL1        0.0770
      8 C          64.1061   90.9971   12.9260 C.ar    1  UNL1        0.0195
      9 C          64.8274   91.9575   12.0273 C.ar    1  UNL1        0.0398
     10 C          66.1728   92.4892   12.4236 C.ar    1  UNL1        0.1580
     11 C          66.7970   92.0606   13.7184 C.ar    1  UNL1        0.1353
     12 N          66.0758   91.1003   14.6170 N.ar    1  UNL1       -0.2433
     13 O          66.8940   93.4496   11.5250 O.3     1  UNL1       -0.4650
     14 C          66.9874   93.1740   10.0535 C.3     1  UNL1        0.3082
     15 C          68.2922   92.7416    9.4528 C.3     1  UNL1        0.4380
     16 F          69.5969   92.3092    8.8521 F       1  UNL1       -0.1663
     17 F          67.8653   91.3075    9.5578 F       1  UNL1       -0.1663
     18 F          68.7191   94.1757    9.3478 F       1  UNL1       -0.1663
     19 C          63.8933   85.7085   15.8468 C.3     1  UNL1        0.1113
     20 C          63.7288   83.7887   11.7802 C.ar    1  UNL1       -0.0225
     21 C          62.8035   84.9215   12.1128 C.ar    1  UNL1       -0.0046
     22 C          62.8584   85.5614   13.4683 C.ar    1  UNL1       -0.0041
     23 C          63.8385   85.0685   14.4912 C.ar    1  UNL1       -0.0131
     24 C          64.7637   83.9357   14.1587 C.ar    1  UNL1       -0.0041
     25 C          64.7088   83.2958   12.8031 C.ar    1  UNL1       -0.0046
     26 C          63.6221   84.0037    9.1932 C.3     1  UNL1        0.0047
     27 C          63.6739   83.1488   10.4246 C.3     1  UNL1        0.0224
     28 C          63.6709   81.6540   10.3005 C.3     1  UNL1        0.0047
@<TRIPOS>BOND
     1    26    27    1
     2    27    28    1
     3    27    20    1
     4    20    21   ar
     5    21    22   ar
     6    22    23   ar
     7    23    19    1
     8    19     1    1
     9     1     2    2
    10     1     3   am
    11     3     5    1
    12     5     6    1
    13     5     7    1
    14     7     8   ar
    15     8     9   ar
    16     9    10   ar
    17    10    13    1
    18    13    14    1
    19    14    15    1
    20    15    16    1
    21    15    17    1
    22    15    18    1
    23    10    11   ar
    24    11    12   ar
    25    23    24   ar
    26    24    25   ar
    27    25    20   ar
    28    12     7   ar
    29     3     4    1
@<TRIPOS>MOLECULE
*****
 28 29 0 0 0
SMALL
GASTEIGER

@<TRIPOS>ATOM
      1 C          62.9785   90.0200   13.1357 C.2     1  UNL1        0.2271
      2 O          63.0591   88.6906   13.8259 O.2     1  UNL1       -0.2747
      3 N          61.9724   90.2390   12.0449 N.am    1  UNL1       -0.3005
      4 H          61.9195   91.1115   11.5919 H       1  UNL1        0.1497
      5 C          61.0470   89.1285   11.6442 C.3     1  UNL1        0.1119
      6 C          59.5653   89.2890   11.8140 C.3     1  UNL1        0.0278
      7 C          61.6032   87.8577   11.0737 C.ar    1  UNL1        0.0770
      8 C          62.1034   87.8260    9.6600 C.ar    1  UNL1        0.0195
      9 C          62.6597   86.5551    9.0895 C.ar    1  UNL1        0.0398
     10 C          62.7157   85.3159    9.9328 C.ar    1  UNL1        0.1580
     11 C          62.2154   85.3475   11.3465 C.ar    1  UNL1        0.1353
     12 N          61.6592   86.6184   11.9170 N.ar    1  UNL1       -0.2433
     13 O          63.2719   84.0450    9.3623 O.3     1  UNL1       -0.4650
     14 C          64.2798   83.2518   10.1400 C.3     1  UNL1        0.3082
     15 C          63.8217   82.2330   11.1412 C.3     1  UNL1        0.4380
     16 F          63.3635   81.2142   12.1422 F       1  UNL1       -0.1663
     17 F          63.2254   81.4141   10.0349 F       1  UNL1       -0.1663
     18 F          64.4180   83.0518   12.2474 F       1  UNL1       -0.1663
     19 C          63.9039   91.1304   13.5364 C.3     1  UNL1        0.1113
     20 C          66.8551   92.7816   10.5676 C.ar    1  UNL1       -0.0225
     21 C          65.4298   92.5528   10.1603 C.ar    1  UNL1       -0.0046
     22 C          64.4460   92.0024   11.1499 C.ar    1  UNL1       -0.0041
     23 C          64.8877   91.6808   12.5468 C.ar    1  UNL1       -0.0131
     24 C          66.3130   91.9095   12.9541 C.ar    1  UNL1       -0.0041
     25 C          67.2968   92.4599   11.9645 C.ar    1  UNL1       -0.0046
     26 C          67.7830   94.7801    9.1910 C.3     1  UNL1        0.0047
     27 C          67.8389   93.3320    9.5780 C.3     1  UNL1        0.0224
     28 C          68.8785   92.4342    8.9754 C.3     1  UNL1        0.0047
@<TRIPOS>BOND
     1    26    27    1
     2    27    28    1
     3    27    20    1
     4    20    21   ar
     5    21    22   ar
     6    22    23   ar
     7    23    19    1
     8    19     1    1
     9     1     2    2
    10     1     3   am
    11     3     5    1
    12     5     6    1
    13     5     7    1
    14     7     8   ar
    15     8     9   ar
    16     9    10   ar
    17    10    13    1
    18    13    14    1
    19    14    15    1
    20    15    16    1
    21    15    17    1
    22    15    18    1
    23    10    11   ar
    24    11    12   ar
    25    23    24   ar
    26    24    25   ar
    27    25    20   ar
    28    12     7   ar
    29     3     4    1
