@<TRIPOS>MOLECULE
*****
 26 28 0 0 0
SMALL
GASTEIGER

@<TRIPOS>ATOM
      1 C          64.1260   89.2764   13.7252 C.ar    1  UNL1        0.3134
      2 N          64.4721   88.3166   14.8247 N.ar    1  UNL1       -0.1854
      3 C          64.0438   86.9449   14.3945 C.ar    1  UNL1        0.2051
      4 N          63.4330   87.0569   13.0291 N.ar    1  UNL1       -0.0582
      5 O          63.4838   88.4978   12.6154 O.2     1  UNL1       -0.3279
      6 O          63.7971   91.6084   14.8221 O.2     1  UNL1       -0.2649
      7 C          64.3779   90.7550   13.7338 C.2     1  UNL1        0.3025
      8 N          65.2107   91.3803   12.6542 N.am    1  UNL1       -0.2930
      9 H          65.5920   90.8202   11.9400 H       1  UNL1        0.1502
     10 C          65.4626   92.8589   12.6629 C.3     1  UNL1        0.1168
     11 C          66.2221   93.4970   11.5376 C.ar    1  UNL1        0.0005
     12 C          66.1845   94.9855   11.3565 C.ar    1  UNL1        0.0181
     13 C          66.9439   95.6235   10.2313 C.ar    1  UNL1        0.0986
     14 N          67.7410   94.7730    9.2872 N.ar    1  UNL1       -0.2423
     15 C          67.7786   93.2845    9.4683 C.ar    1  UNL1        0.0986
     16 C          67.0191   92.6465   10.5935 C.ar    1  UNL1        0.0181
     17 C          64.1990   85.6828   15.1901 C.3     1  UNL1        0.2245
     18 S          63.7189   84.3778   14.6276 S.O2    1  UNL1        0.0162
     19 O          65.0800   84.1259   14.0499 O.2     1  UNL1       -0.1682
     20 O          62.3577   84.6296   15.2054 O.2     1  UNL1       -0.1682
     21 C          63.2387   83.0728   14.0651 C.ar    1  UNL1        0.1062
     22 C          62.0500   82.3870   14.6707 C.ar    1  UNL1        0.0184
     23 C          61.5698   81.0821   14.1081 C.ar    1  UNL1        0.0013
     24 C          62.2784   80.4628   12.9400 C.ar    1  UNL1        0.0001
     25 C          63.4671   81.1485   12.3345 C.ar    1  UNL1        0.0013
     26 C          63.9473   82.4535   12.8970 C.ar    1  UNL1        0.0184
@<TRIPOS>BOND
     1     6     7    2
     2     7     8   am
     3     8    10    1
     4    10    11    1
     5    11    12   ar
     6    12    13   ar
     7    13    14   ar
     8    14    15   ar
     9    15    16   ar
    10     7     1    1
    11     1     2   ar
    12     2     3   ar
    13     3    17    1
    14    17    18    1
    15    18    19    2
    16    18    20    2
    17    18    21    1
    18    21    22   ar
    19    22    23   ar
    20    23    24   ar
    21    24    25   ar
    22    25    26   ar
    23     3     4   ar
    24     4     5   ar
    25    16    11   ar
    26     5     1   ar
    27    26    21   ar
    28     8     9    1
@<TRIPOS>MOLECULE
*****
 26 28 0 0 0
SMALL
GASTEIGER

@<TRIPOS>ATOM
      1 C          64.1411   89.2719   13.7818 C.ar    1  UNL1        0.3134
      2 N          64.4640   88.2881   14.8671 N.ar    1  UNL1       -0.1854
      3 C          64.0308   86.9286   14.4043 C.ar    1  UNL1        0.2051
      4 N          63.4401   87.0722   13.0330 N.ar    1  UNL1       -0.0582
      5 O          63.5083   88.5204   12.6483 O.2     1  UNL1       -0.3279
      6 O          63.7620   91.5954   14.8806 O.2     1  UNL1       -0.2649
      7 C          64.4047   90.7479   13.8229 C.2     1  UNL1        0.3025
      8 N          65.3110   91.3765   12.8063 N.am    1  UNL1       -0.2930
      9 H          65.7329   90.8203   12.1121 H       1  UNL1        0.1502
     10 C          65.5746   92.8526   12.8474 C.3     1  UNL1        0.1168
     11 C          66.2468   93.5270   11.6883 C.ar    1  UNL1        0.0005
     12 C          66.9847   92.7095   10.6699 C.ar    1  UNL1        0.0181
     13 C          67.6568   93.3839    9.5109 C.ar    1  UNL1        0.0986
     14 N          67.5910   94.8758    9.3702 N.ar    1  UNL1       -0.2423
     15 C          66.8531   95.6933   10.3886 C.ar    1  UNL1        0.0986
     16 C          66.1810   95.0189   11.5476 C.ar    1  UNL1        0.0181
     17 C          64.1647   85.6500   15.1771 C.3     1  UNL1        0.2245
     18 S          63.6850   84.3597   14.5813 S.O2    1  UNL1        0.0162
     19 O          62.3091   84.6238   15.1170 O.2     1  UNL1       -0.1682
     20 O          65.0610   84.0956   14.0456 O.2     1  UNL1       -0.1682
     21 C          63.2054   83.0694   13.9854 C.ar    1  UNL1        0.1062
     22 C          63.8189   82.5552   12.7169 C.ar    1  UNL1        0.0184
     23 C          63.3392   81.2649   12.1211 C.ar    1  UNL1        0.0013
     24 C          62.2460   80.4887   12.7939 C.ar    1  UNL1        0.0001
     25 C          61.6326   81.0029   14.0625 C.ar    1  UNL1        0.0013
     26 C          62.1123   82.2932   14.6582 C.ar    1  UNL1        0.0184
@<TRIPOS>BOND
     1     6     7    2
     2     7     8   am
     3     8    10    1
     4    10    11    1
     5    11    12   ar
     6    12    13   ar
     7    13    14   ar
     8    14    15   ar
     9    15    16   ar
    10     7     1    1
    11     1     2   ar
    12     2     3   ar
    13     3    17    1
    14    17    18    1
    15    18    19    2
    16    18    20    2
    17    18    21    1
    18    21    22   ar
    19    22    23   ar
    20    23    24   ar
    21    24    25   ar
    22    25    26   ar
    23     3     4   ar
    24     4     5   ar
    25    16    11   ar
    26     5     1   ar
    27    26    21   ar
    28     8     9    1
@<TRIPOS>MOLECULE
*****
 26 28 0 0 0
SMALL
GASTEIGER

@<TRIPOS>ATOM
      1 C          63.1611   88.0693   16.1949 C.ar    1  UNL1        0.3134
      2 N          63.8751   86.8499   15.6919 N.ar    1  UNL1       -0.1854
      3 C          63.2161   85.6450   16.2952 C.ar    1  UNL1        0.2051
      4 N          62.0946   86.1198   17.1710 N.ar    1  UNL1       -0.0582
      5 O          62.0607   87.6181   17.1090 O.2     1  UNL1       -0.3279
      6 O          63.2178   90.5876   16.8312 O.2     1  UNL1       -0.2649
      7 C          63.4897   89.4905   15.8451 C.2     1  UNL1        0.3025
      8 N          64.0902   89.8145   14.5092 N.am    1  UNL1       -0.2930
      9 H          64.2686   89.0944   13.8620 H       1  UNL1        0.1502
     10 C          64.4188   91.2356   14.1595 C.3     1  UNL1        0.1168
     11 C          65.7919   91.7761   14.4289 C.ar    1  UNL1        0.0005
     12 C          66.0934   92.4377   15.7409 C.ar    1  UNL1        0.0181
     13 C          67.4664   92.9781   16.0103 C.ar    1  UNL1        0.0986
     14 N          68.5381   92.8568   14.9677 N.ar    1  UNL1       -0.2423
     15 C          68.2366   92.1952   13.6558 C.ar    1  UNL1        0.0986
     16 C          66.8635   91.6548   13.3864 C.ar    1  UNL1        0.0181
     17 C          63.6094   84.2162   16.0633 C.3     1  UNL1        0.2245
     18 S          63.5980   83.6511   14.6739 S.O2    1  UNL1        0.0162
     19 O          62.1525   83.2846   14.8347 O.2     1  UNL1       -0.1682
     20 O          65.0437   84.0176   14.5131 O.2     1  UNL1       -0.1682
     21 C          63.5868   83.0860   13.2844 C.ar    1  UNL1        0.1062
     22 C          64.3388   83.7787   12.1869 C.ar    1  UNL1        0.0184
     23 C          64.3275   83.2136   10.7975 C.ar    1  UNL1        0.0013
     24 C          63.5642   81.9558   10.5056 C.ar    1  UNL1        0.0001
     25 C          62.8122   81.2631   11.6031 C.ar    1  UNL1        0.0013
     26 C          62.8235   81.8282   12.9925 C.ar    1  UNL1        0.0184
@<TRIPOS>BOND
     1     6     7    2
     2     7     8   am
     3     8    10    1
     4    10    11    1
     5    11    12   ar
     6    12    13   ar
     7    13    14   ar
     8    14    15   ar
     9    15    16   ar
    10     7     1    1
    11     1     2   ar
    12     2     3   ar
    13     3    17    1
    14    17    18    1
    15    18    19    2
    16    18    20    2
    17    18    21    1
    18    21    22   ar
    19    22    23   ar
    20    23    24   ar
    21    24    25   ar
    22    25    26   ar
    23     3     4   ar
    24     4     5   ar
    25    16    11   ar
    26     5     1   ar
    27    26    21   ar
    28     8     9    1
@<TRIPOS>MOLECULE
*****
 26 28 0 0 0
SMALL
GASTEIGER

@<TRIPOS>ATOM
      1 C          63.3806   88.5674   15.5075 C.ar    1  UNL1        0.3134
      2 N          64.0192   87.2955   15.0339 N.ar    1  UNL1       -0.1854
      3 C          63.7059   86.2200   16.0314 C.ar    1  UNL1        0.2051
      4 N          62.8734   86.8273   17.1216 N.ar    1  UNL1       -0.0582
      5 O          62.6724   88.2780   16.7978 O.2     1  UNL1       -0.3279
      6 O          63.5161   91.1596   15.6166 O.2     1  UNL1       -0.2649
      7 C          63.4396   89.8955   14.8128 C.2     1  UNL1        0.3025
      8 N          63.4222   89.9595   13.3142 N.am    1  UNL1       -0.2930
      9 H          63.3720   89.1298   12.7866 H       1  UNL1        0.1502
     10 C          63.4813   91.2876   12.6195 C.3     1  UNL1        0.1168
     11 C          64.8045   91.8566   12.2003 C.ar    1  UNL1        0.0005
     12 C          65.9393   91.9159   13.1793 C.ar    1  UNL1        0.0181
     13 C          67.2624   92.4849   12.7602 C.ar    1  UNL1        0.0986
     14 N          67.4506   92.9945   11.3620 N.ar    1  UNL1       -0.2423
     15 C          66.3157   92.9352   10.3830 C.ar    1  UNL1        0.0986
     16 C          64.9926   92.3662   10.8022 C.ar    1  UNL1        0.0181
     17 C          64.1473   84.7886   15.9527 C.3     1  UNL1        0.2245
     18 S          63.9058   83.9970   14.7017 S.O2    1  UNL1        0.0162
     19 O          65.3353   84.2016   14.2961 O.2     1  UNL1       -0.1682
     20 O          62.4762   83.7923   15.1073 O.2     1  UNL1       -0.1682
     21 C          63.6642   83.2053   13.4507 C.ar    1  UNL1        0.1062
     22 C          63.0660   81.8324   13.5357 C.ar    1  UNL1        0.0184
     23 C          62.8244   81.0408   12.2847 C.ar    1  UNL1        0.0013
     24 C          63.1810   81.6222   10.9487 C.ar    1  UNL1        0.0001
     25 C          63.7791   82.9952   10.8637 C.ar    1  UNL1        0.0013
     26 C          64.0207   83.7867   12.1147 C.ar    1  UNL1        0.0184
@<TRIPOS>BOND
     1     6     7    2
     2     7     8   am
     3     8    10    1
     4    10    11    1
     5    11    12   ar
     6    12    13   ar
     7    13    14   ar
     8    14    15   ar
     9    15    16   ar
    10     7     1    1
    11     1     2   ar
    12     2     3   ar
    13     3    17    1
    14    17    18    1
    15    18    19    2
    16    18    20    2
    17    18    21    1
    18    21    22   ar
    19    22    23   ar
    20    23    24   ar
    21    24    25   ar
    22    25    26   ar
    23     3     4   ar
    24     4     5   ar
    25    16    11   ar
    26     5     1   ar
    27    26    21   ar
    28     8     9    1
@<TRIPOS>MOLECULE
*****
 26 28 0 0 0
SMALL
GASTEIGER

@<TRIPOS>ATOM
      1 C          62.5503   90.4224   11.4660 C.ar    1  UNL1        0.3134
      2 N          62.6730   88.9793   11.0754 N.ar    1  UNL1       -0.1854
      3 C          61.3443   88.5279   10.5458 C.ar    1  UNL1        0.2051
      4 N          60.4003   89.6919   10.6090 N.ar    1  UNL1       -0.0582
      5 O          61.1457   90.8628   11.1777 O.2     1  UNL1       -0.3279
      6 O          63.7564   91.4401   13.5299 O.2     1  UNL1       -0.2649
      7 C          63.6408   91.2752   12.0434 C.2     1  UNL1        0.3025
      8 N          64.6156   91.9634   11.1344 N.am    1  UNL1       -0.2930
      9 H          64.5397   91.8552   10.1588 H       1  UNL1        0.1502
     10 C          65.7061   92.8162   11.7119 C.3     1  UNL1        0.1168
     11 C          66.3065   93.9213   10.8942 C.ar    1  UNL1        0.0005
     12 C          66.1124   95.3502   11.3069 C.ar    1  UNL1        0.0181
     13 C          66.7128   96.4551   10.4893 C.ar    1  UNL1        0.0986
     14 N          67.5073   96.1311    9.2589 N.ar    1  UNL1       -0.2423
     15 C          67.7014   94.7022    8.8462 C.ar    1  UNL1        0.0986
     16 C          67.1010   93.5972    9.6638 C.ar    1  UNL1        0.0181
     17 C          61.0169   87.1536   10.0415 C.3     1  UNL1        0.2245
     18 S          61.8580   85.9827   10.4555 S.O2    1  UNL1        0.0162
     19 O          61.3322   86.0999   11.8553 O.2     1  UNL1       -0.1682
     20 O          62.3838   85.8654    9.0555 O.2     1  UNL1       -0.1682
     21 C          62.6991   84.8117   10.8694 C.ar    1  UNL1        0.1062
     22 C          63.4743   84.0438    9.8401 C.ar    1  UNL1        0.0184
     23 C          64.3154   82.8729   10.2541 C.ar    1  UNL1        0.0013
     24 C          64.3812   82.4697   11.6975 C.ar    1  UNL1        0.0001
     25 C          63.6060   83.2376   12.7268 C.ar    1  UNL1        0.0013
     26 C          62.7649   84.4085   12.3127 C.ar    1  UNL1        0.0184
@<TRIPOS>BOND
     1     6     7    2
     2     7     8   am
     3     8    10    1
     4    10    11    1
     5    11    12   ar
     6    12    13   ar
     7    13    14   ar
     8    14    15   ar
     9    15    16   ar
    10     7     1    1
    11     1     2   ar
    12     2     3   ar
    13     3    17    1
    14    17    18    1
    15    18    19    2
    16    18    20    2
    17    18    21    1
    18    21    22   ar
    19    22    23   ar
    20    23    24   ar
    21    24    25   ar
    22    25    26   ar
    23     3     4   ar
    24     4     5   ar
    25    16    11   ar
    26     5     1   ar
    27    26    21   ar
    28     8     9    1
@<TRIPOS>MOLECULE
*****
 26 28 0 0 0
SMALL
GASTEIGER

@<TRIPOS>ATOM
      1 C          64.2791   89.8341   14.5151 C.ar    1  UNL1        0.3134
      2 N          65.6318   90.4805   14.5640 N.ar    1  UNL1       -0.1854
      3 C          65.6079   91.6748   13.6568 C.ar    1  UNL1        0.2051
      4 N          64.2404   91.7666   13.0472 N.ar    1  UNL1       -0.0582
      5 O          63.4191   90.6290   13.5777 O.2     1  UNL1       -0.3279
      6 O          62.9967   88.7377   16.4908 O.2     1  UNL1       -0.2649
      7 C          63.8599   88.6082   15.2709 C.2     1  UNL1        0.3025
      8 N          64.3040   87.2526   14.8069 N.am    1  UNL1       -0.2930
      9 H          64.8706   87.1675   14.0062 H       1  UNL1        0.1502
     10 C          63.8849   86.0266   15.5627 C.3     1  UNL1        0.1168
     11 C          63.6519   84.7378   14.8314 C.ar    1  UNL1        0.0005
     12 C          64.4903   84.3911   13.6369 C.ar    1  UNL1        0.0181
     13 C          64.2573   83.1023   12.9057 C.ar    1  UNL1        0.0986
     14 N          63.1859   82.1602   13.3690 N.ar    1  UNL1       -0.2423
     15 C          62.3476   82.5069   14.5635 C.ar    1  UNL1        0.0986
     16 C          62.5806   83.7957   15.2947 C.ar    1  UNL1        0.0181
     17 C          66.7508   92.6127   13.4036 C.3     1  UNL1        0.2245
     18 S          66.7326   93.5100   12.2017 S.O2    1  UNL1        0.0162
     19 O          66.1328   94.6073   13.0300 O.2     1  UNL1       -0.1682
     20 O          67.3324   92.4126   11.3734 O.2     1  UNL1       -0.1682
     21 C          66.7144   94.4073   10.9998 C.ar    1  UNL1        0.1062
     22 C          67.2764   93.9252    9.6953 C.ar    1  UNL1        0.0184
     23 C          67.2581   94.8225    8.4935 C.ar    1  UNL1        0.0013
     24 C          66.6779   96.2019    8.5961 C.ar    1  UNL1        0.0001
     25 C          66.1159   96.6840    9.9006 C.ar    1  UNL1        0.0013
     26 C          66.1341   95.7867   11.1024 C.ar    1  UNL1        0.0184
@<TRIPOS>BOND
     1     6     7    2
     2     7     8   am
     3     8    10    1
     4    10    11    1
     5    11    12   ar
     6    12    13   ar
     7    13    14   ar
     8    14    15   ar
     9    15    16   ar
    10     7     1    1
    11     1     2   ar
    12     2     3   ar
    13     3    17    1
    14    17    18    1
    15    18    19    2
    16    18    20    2
    17    18    21    1
    18    21    22   ar
    19    22    23   ar
    20    23    24   ar
    21    24    25   ar
    22    25    26   ar
    23     3     4   ar
    24     4     5   ar
    25    16    11   ar
    26     5     1   ar
    27    26    21   ar
    28     8     9    1
@<TRIPOS>MOLECULE
*****
 26 28 0 0 0
SMALL
GASTEIGER

@<TRIPOS>ATOM
      1 C          63.4023   85.9572   16.0870 C.ar    1  UNL1        0.3134
      2 N          63.7107   87.2585   15.4078 N.ar    1  UNL1       -0.1854
      3 C          63.3709   88.3690   16.3573 C.ar    1  UNL1        0.2051
      4 N          62.8526   87.7539   17.6234 N.ar    1  UNL1       -0.0582
      5 O          62.8719   86.2634   17.4564 O.2     1  UNL1       -0.3279
      6 O          64.9709   84.0198   15.3551 O.2     1  UNL1       -0.2649
      7 C          63.5910   84.5899   15.5000 C.2     1  UNL1        0.3025
      8 N          62.3999   83.7924   15.0579 N.am    1  UNL1       -0.2930
      9 H          61.4942   84.1666   15.1530 H       1  UNL1        0.1502
     10 C          62.5887   82.4251   14.4709 C.3     1  UNL1        0.1168
     11 C          63.0069   82.2751   13.0381 C.ar    1  UNL1        0.0005
     12 C          62.7006   81.0080   12.2961 C.ar    1  UNL1        0.0181
     13 C          63.1188   80.8581   10.8635 C.ar    1  UNL1        0.0986
     14 N          63.8433   81.9753   10.1728 N.ar    1  UNL1       -0.2423
     15 C          64.1496   83.2424   10.9148 C.ar    1  UNL1        0.0986
     16 C          63.7314   83.3923   12.3475 C.ar    1  UNL1        0.0181
     17 C          63.5229   89.8368   16.0880 C.3     1  UNL1        0.2245
     18 S          63.6743   90.3291   14.6792 S.O2    1  UNL1        0.0162
     19 O          62.2901   89.8464   14.3617 O.2     1  UNL1       -0.1682
     20 O          65.0586   90.8118   14.9967 O.2     1  UNL1       -0.1682
     21 C          63.8257   90.8215   13.2704 C.ar    1  UNL1        0.1062
     22 C          64.9349   91.7693   12.9223 C.ar    1  UNL1        0.0184
     23 C          65.0863   92.2616   11.5135 C.ar    1  UNL1        0.0013
     24 C          64.1285   91.8061   10.4528 C.ar    1  UNL1        0.0001
     25 C          63.0192   90.8583   10.8010 C.ar    1  UNL1        0.0013
     26 C          62.8679   90.3659   12.2097 C.ar    1  UNL1        0.0184
@<TRIPOS>BOND
     1     6     7    2
     2     7     8   am
     3     8    10    1
     4    10    11    1
     5    11    12   ar
     6    12    13   ar
     7    13    14   ar
     8    14    15   ar
     9    15    16   ar
    10     7     1    1
    11     1     2   ar
    12     2     3   ar
    13     3    17    1
    14    17    18    1
    15    18    19    2
    16    18    20    2
    17    18    21    1
    18    21    22   ar
    19    22    23   ar
    20    23    24   ar
    21    24    25   ar
    22    25    26   ar
    23     3     4   ar
    24     4     5   ar
    25    16    11   ar
    26     5     1   ar
    27    26    21   ar
    28     8     9    1
@<TRIPOS>MOLECULE
*****
 26 28 0 0 0
SMALL
GASTEIGER

@<TRIPOS>ATOM
      1 C          64.1114   90.7914   12.7985 C.ar    1  UNL1        0.3134
      2 N          62.9011   90.6779   11.9199 N.ar    1  UNL1       -0.1854
      3 C          62.3065   89.3159   12.1235 C.ar    1  UNL1        0.2051
      4 N          63.1494   88.5876   13.1280 N.ar    1  UNL1       -0.0582
      5 O          64.2649   89.4995   13.5452 O.2     1  UNL1       -0.3279
      6 O          65.8074   92.2111   14.1616 O.2     1  UNL1       -0.2649
      7 C          65.0105   91.9868   12.9108 C.2     1  UNL1        0.3025
      8 N          65.1126   92.9581   11.7722 N.am    1  UNL1       -0.2930
      9 H          64.5895   92.8109   10.9512 H       1  UNL1        0.1502
     10 C          66.0116   94.1535   11.8845 C.3     1  UNL1        0.1168
     11 C          66.6112   94.7596   10.6503 C.ar    1  UNL1        0.0005
     12 C          67.2173   93.8770    9.5998 C.ar    1  UNL1        0.0181
     13 C          67.8169   94.4831    8.3657 C.ar    1  UNL1        0.0986
     14 N          67.8103   95.9718    8.1820 N.ar    1  UNL1       -0.2423
     15 C          67.2041   96.8544    9.2325 C.ar    1  UNL1        0.0986
     16 C          66.6046   96.2483   10.4666 C.ar    1  UNL1        0.0181
     17 C          61.0837   88.7769   11.4422 C.3     1  UNL1        0.2245
     18 S          61.2232   87.7900   10.3212 S.O2    1  UNL1        0.0162
     19 O          61.2018   88.9143    9.3286 O.2     1  UNL1       -0.1682
     20 O          61.2446   86.6656   11.3139 O.2     1  UNL1       -0.1682
     21 C          61.3628   86.8030    9.2003 C.ar    1  UNL1        0.1062
     22 C          60.2194   86.5724    8.2572 C.ar    1  UNL1        0.0184
     23 C          60.3591   85.5854    7.1364 C.ar    1  UNL1        0.0013
     24 C          61.6421   84.8290    6.9586 C.ar    1  UNL1        0.0001
     25 C          62.7855   85.0595    7.9017 C.ar    1  UNL1        0.0013
     26 C          62.6458   86.0466    9.0226 C.ar    1  UNL1        0.0184
@<TRIPOS>BOND
     1     6     7    2
     2     7     8   am
     3     8    10    1
     4    10    11    1
     5    11    12   ar
     6    12    13   ar
     7    13    14   ar
     8    14    15   ar
     9    15    16   ar
    10     7     1    1
    11     1     2   ar
    12     2     3   ar
    13     3    17    1
    14    17    18    1
    15    18    19    2
    16    18    20    2
    17    18    21    1
    18    21    22   ar
    19    22    23   ar
    20    23    24   ar
    21    24    25   ar
    22    25    26   ar
    23     3     4   ar
    24     4     5   ar
    25    16    11   ar
    26     5     1   ar
    27    26    21   ar
    28     8     9    1
@<TRIPOS>MOLECULE
*****
 26 28 0 0 0
SMALL
GASTEIGER

@<TRIPOS>ATOM
      1 C          63.9038   86.6239   14.8883 C.ar    1  UNL1        0.3134
      2 N          64.2384   88.0243   14.4677 N.ar    1  UNL1       -0.1854
      3 C          63.8121   88.9526   15.5661 C.ar    1  UNL1        0.2051
      4 N          63.2140   88.1259   16.6656 N.ar    1  UNL1       -0.0582
      5 O          63.2707   86.6867   16.2467 O.2     1  UNL1       -0.3279
      6 O          65.2461   84.4330   14.5031 O.2     1  UNL1       -0.2649
      7 C          64.1578   85.3793   14.0906 C.2     1  UNL1        0.3025
      8 N          63.3234   85.0809   12.8802 N.am    1  UNL1       -0.2930
      9 H          62.6091   85.7019   12.6094 H       1  UNL1        0.1502
     10 C          63.5773   83.8363   12.0825 C.3     1  UNL1        0.1168
     11 C          63.0081   82.5249   12.5369 C.ar    1  UNL1        0.0005
     12 C          63.2129   81.2911   11.7089 C.ar    1  UNL1        0.0181
     13 C          62.6437   79.9799   12.1633 C.ar    1  UNL1        0.0986
     14 N          61.8696   79.9025   13.4458 N.ar    1  UNL1       -0.2423
     15 C          61.6648   81.1363   14.2739 C.ar    1  UNL1        0.0986
     16 C          62.2340   82.4475   13.8194 C.ar    1  UNL1        0.0181
     17 C          63.9582   90.4455   15.5652 C.3     1  UNL1        0.2245
     18 S          64.4179   91.1533   14.3252 S.O2    1  UNL1        0.0162
     19 O          65.6893   91.5432   15.0191 O.2     1  UNL1       -0.1682
     20 O          63.1465   90.7634   13.6313 O.2     1  UNL1       -0.1682
     21 C          64.8776   91.8612   13.0851 C.ar    1  UNL1        0.1062
     22 C          64.2596   91.5292   11.7593 C.ar    1  UNL1        0.0184
     23 C          64.7193   92.2371   10.5193 C.ar    1  UNL1        0.0013
     24 C          65.7970   93.2770   10.6052 C.ar    1  UNL1        0.0001
     25 C          66.4150   93.6089   11.9311 C.ar    1  UNL1        0.0013
     26 C          65.9553   92.9010   13.1710 C.ar    1  UNL1        0.0184
@<TRIPOS>BOND
     1     6     7    2
     2     7     8   am
     3     8    10    1
     4    10    11    1
     5    11    12   ar
     6    12    13   ar
     7    13    14   ar
     8    14    15   ar
     9    15    16   ar
    10     7     1    1
    11     1     2   ar
    12     2     3   ar
    13     3    17    1
    14    17    18    1
    15    18    19    2
    16    18    20    2
    17    18    21    1
    18    21    22   ar
    19    22    23   ar
    20    23    24   ar
    21    24    25   ar
    22    25    26   ar
    23     3     4   ar
    24     4     5   ar
    25    16    11   ar
    26     5     1   ar
    27    26    21   ar
    28     8     9    1
