@<TRIPOS>MOLECULE
*****
 33 37 0 0 0
SMALL
GASTEIGER

@<TRIPOS>ATOM
      1 C          60.5649   86.6311    8.1213 C.3     1  UNL1        0.0795
      2 C          59.8038   87.4434    7.1159 C.3     1  UNL1        0.0178
      3 C          59.4554   88.8715    7.4143 C.3     1  UNL1        0.0029
      4 C          59.8681   89.4873    8.7183 C.3     1  UNL1        0.0178
      5 C          60.6292   88.6750    9.7238 C.3     1  UNL1        0.0799
      6 N          60.9776   87.2469    9.4253 N.3     1  UNL1       -0.1583
      7 C          61.0419   89.2909   11.0278 C.3     1  UNL1        0.0237
      8 C          59.6998   89.4438   11.6800 C.3     1  UNL1        0.0019
      9 C          60.9388   89.8856   12.4010 C.3     1  UNL1        0.0019
     10 C          62.5273   89.3518   10.8285 C.3     1  UNL1        0.0866
     11 C          63.2153   90.6802   10.7183 C.2     1  UNL1        0.2258
     12 O          63.2499   91.7520    9.6694 O.2     1  UNL1       -0.2749
     13 N          64.0932   91.1651   11.8338 N.am    1  UNL1       -0.2768
     14 C          64.2830   90.3216   13.0595 C.3     1  UNL1        0.1093
     15 C          65.1609   90.8064   14.1750 C.3     1  UNL1        0.0775
     16 C          66.0846   91.6550   14.9976 C.3     1  UNL1        0.0191
     17 C          66.3722   92.9089   14.2262 C.3     1  UNL1        0.0191
     18 C          65.6262   92.8353   12.9269 C.3     1  UNL1        0.0775
     19 C          64.7812   92.4934   11.7235 C.3     1  UNL1        0.1093
     20 N          64.8775   91.5359   12.8953 N.3     1  UNL1       -0.2709
     21 C          64.4110   91.2782   12.3025 C.3     1  UNL1        0.0897
     22 S          61.7387   86.4346   10.4308 S.O2    1  UNL1        0.0632
     23 O          60.8216   86.3725   11.6161 O.2     1  UNL1       -0.1528
     24 O          62.8735   86.2961    9.4598 O.2     1  UNL1       -0.1528
     25 C          62.4996   85.6223   11.4363 C.ar    1  UNL1        0.1222
     26 C          63.0467   86.2771   12.6698 C.ar    1  UNL1        0.0208
     27 C          63.8077   85.4649   13.6754 C.ar    1  UNL1        0.0128
     28 C          64.0216   83.9979   13.4473 C.ar    1  UNL1        0.0578
     29 CL         64.8066   83.5062   14.6272 Cl      1  UNL1       -0.0822
     30 C          63.4745   83.3430   12.2137 C.ar    1  UNL1        0.0128
     31 C          62.7135   84.1553   11.2081 C.ar    1  UNL1        0.0208
     32 C          61.6037   84.8522    6.5382 C.3     1  UNL1        0.0015
     33 C          60.9132   85.2030    7.8227 C.3     1  UNL1        0.0177
@<TRIPOS>BOND
     1    32    33    1
     2     1    33    1
     3     1     2    1
     4     2     3    1
     5     3     4    1
     6     4     5    1
     7     5     7    1
     8     7    10    1
     9    10    11    1
    10    11    12    2
    11    11    13   am
    12    13    14    1
    13    14    15    1
    14    15    16    1
    15    16    17    1
    16    17    18    1
    17    18    19    1
    18    18    20    1
    19    20    21    1
    20     7     8    1
    21     8     9    1
    22     5     6    1
    23     6    22    1
    24    22    23    2
    25    22    24    2
    26    22    25    1
    27    25    26   ar
    28    26    27   ar
    29    27    28   ar
    30    28    29    1
    31    28    30   ar
    32    30    31   ar
    33     6     1    1
    34    31    25   ar
    35     9     7    1
    36    19    13    1
    37    20    15    1
@<TRIPOS>MOLECULE
*****
 33 37 0 0 0
SMALL
GASTEIGER

@<TRIPOS>ATOM
      1 C          63.0783   85.7429   12.5343 C.3     1  UNL1        0.0795
      2 C          63.9228   85.4076   13.7278 C.3     1  UNL1        0.0178
      3 C          64.4824   86.5055   14.5830 C.3     1  UNL1        0.0029
      4 C          64.1975   87.9389   14.2447 C.3     1  UNL1        0.0178
      5 C          63.3530   88.2742   13.0512 C.3     1  UNL1        0.0799
      6 N          62.7934   87.1763   12.1960 N.3     1  UNL1       -0.1583
      7 C          63.0681   89.7075   12.7129 C.3     1  UNL1        0.0237
      8 C          61.5742   89.7152   12.8487 C.3     1  UNL1        0.0019
      9 C          62.2988   90.9707   12.4626 C.3     1  UNL1        0.0019
     10 C          64.4629   90.1976   12.4597 C.3     1  UNL1        0.0866
     11 C          64.9379   91.4700   13.0964 C.2     1  UNL1        0.2258
     12 O          65.0272   91.9565   14.5125 O.2     1  UNL1       -0.2749
     13 N          65.4653   92.5847   12.2423 N.am    1  UNL1       -0.2768
     14 C          65.5177   92.4270   10.7516 C.3     1  UNL1        0.1093
     15 C          66.0451   93.5416    9.8976 C.3     1  UNL1        0.0775
     16 C          66.6221   94.8569    9.4649 C.3     1  UNL1        0.0191
     17 C          66.8661   95.6825   10.6932 C.3     1  UNL1        0.0191
     18 C          66.4399   94.8776   11.8850 C.3     1  UNL1        0.0775
     19 C          65.9403   93.8571   12.8791 C.3     1  UNL1        0.1093
     20 N          65.9325   93.5544   11.3933 N.3     1  UNL1       -0.2709
     21 C          65.6522   92.9620   11.8471 C.3     1  UNL1        0.0897
     22 S          61.9489   87.5116   11.0025 S.O2    1  UNL1        0.0632
     23 O          62.9306   88.0451   10.0017 O.2     1  UNL1       -0.1528
     24 O          60.7267   87.0454   11.7364 O.2     1  UNL1       -0.1528
     25 C          61.1045   87.8469    9.8090 C.ar    1  UNL1        0.1222
     26 C          60.9230   89.2777    9.3970 C.ar    1  UNL1        0.0208
     27 C          60.0786   89.6131    8.2034 C.ar    1  UNL1        0.0128
     28 C          59.4157   88.5177    7.4220 C.ar    1  UNL1        0.0578
     29 CL         58.6637   89.1961    6.3156 Cl      1  UNL1       -0.0822
     30 C          59.5972   87.0869    7.8341 C.ar    1  UNL1        0.0128
     31 C          60.4416   86.7515    9.0276 C.ar    1  UNL1        0.0208
     32 C          63.4442   83.7137   10.9537 C.3     1  UNL1        0.0015
     33 C          62.5188   84.6450   11.6792 C.3     1  UNL1        0.0177
@<TRIPOS>BOND
     1    32    33    1
     2     1    33    1
     3     1     2    1
     4     2     3    1
     5     3     4    1
     6     4     5    1
     7     5     7    1
     8     7    10    1
     9    10    11    1
    10    11    12    2
    11    11    13   am
    12    13    14    1
    13    14    15    1
    14    15    16    1
    15    16    17    1
    16    17    18    1
    17    18    19    1
    18    18    20    1
    19    20    21    1
    20     7     8    1
    21     8     9    1
    22     5     6    1
    23     6    22    1
    24    22    23    2
    25    22    24    2
    26    22    25    1
    27    25    26   ar
    28    26    27   ar
    29    27    28   ar
    30    28    29    1
    31    28    30   ar
    32    30    31   ar
    33     6     1    1
    34    31    25   ar
    35     9     7    1
    36    19    13    1
    37    20    15    1
@<TRIPOS>MOLECULE
*****
 33 37 0 0 0
SMALL
GASTEIGER

@<TRIPOS>ATOM
      1 C          63.0799   85.8136   12.5373 C.3     1  UNL1        0.0795
      2 C          63.9372   85.5147   13.7313 C.3     1  UNL1        0.0178
      3 C          64.4989   86.6380   14.5515 C.3     1  UNL1        0.0029
      4 C          64.2033   88.0603   14.1776 C.3     1  UNL1        0.0178
      5 C          63.3460   88.3592   12.9835 C.3     1  UNL1        0.0799
      6 N          62.7843   87.2359   12.1634 N.3     1  UNL1       -0.1583
      7 C          63.0504   89.7814   12.6096 C.3     1  UNL1        0.0237
      8 C          61.6301   89.8849   13.0809 C.3     1  UNL1        0.0019
      9 C          62.2973   91.0681   12.4445 C.3     1  UNL1        0.0019
     10 C          64.3680   90.1719   12.0084 C.3     1  UNL1        0.0866
     11 C          64.8306   91.5972   12.0770 C.2     1  UNL1        0.2258
     12 O          64.5864   92.8137   11.2342 O.2     1  UNL1       -0.2749
     13 N          65.7430   92.0371   13.1835 N.am    1  UNL1       -0.2768
     14 C          66.1926   91.0519   14.2213 C.3     1  UNL1        0.1093
     15 C          67.1050   91.4919   15.3277 C.3     1  UNL1        0.0775
     16 C          67.9749   92.3403   16.2070 C.3     1  UNL1        0.0191
     17 C          67.9824   93.7320   15.6474 C.3     1  UNL1        0.0191
     18 C          67.1171   93.7437   14.4222 C.3     1  UNL1        0.0775
     19 C          66.2056   93.4624   13.2520 C.3     1  UNL1        0.1093
     20 N          66.5748   92.3592   14.2246 N.3     1  UNL1       -0.2709
     21 C          66.0899   92.1253   13.6366 C.3     1  UNL1        0.0897
     22 S          61.9270   87.5348   10.9693 S.O2    1  UNL1        0.0632
     23 O          62.9098   87.9259    9.9058 O.2     1  UNL1       -0.1528
     24 O          60.7005   87.2061   11.7677 O.2     1  UNL1       -0.1528
     25 C          61.0698   87.8337    9.7752 C.ar    1  UNL1        0.1222
     26 C          60.8583   89.2536    9.3406 C.ar    1  UNL1        0.0208
     27 C          60.0011   89.5526    8.1465 C.ar    1  UNL1        0.0128
     28 C          59.3555   88.4316    7.3871 C.ar    1  UNL1        0.0578
     29 CL         58.5844   89.0767    6.2739 Cl      1  UNL1       -0.0822
     30 C          59.5670   87.0117    7.8218 C.ar    1  UNL1        0.0128
     31 C          60.4242   86.7127    9.0159 C.ar    1  UNL1        0.0208
     32 C          63.4412   83.7103   11.0555 C.3     1  UNL1        0.0015
     33 C          62.5182   84.6903   11.7172 C.3     1  UNL1        0.0177
@<TRIPOS>BOND
     1    32    33    1
     2     1    33    1
     3     1     2    1
     4     2     3    1
     5     3     4    1
     6     4     5    1
     7     5     7    1
     8     7    10    1
     9    10    11    1
    10    11    12    2
    11    11    13   am
    12    13    14    1
    13    14    15    1
    14    15    16    1
    15    16    17    1
    16    17    18    1
    17    18    19    1
    18    18    20    1
    19    20    21    1
    20     7     8    1
    21     8     9    1
    22     5     6    1
    23     6    22    1
    24    22    23    2
    25    22    24    2
    26    22    25    1
    27    25    26   ar
    28    26    27   ar
    29    27    28   ar
    30    28    29    1
    31    28    30   ar
    32    30    31   ar
    33     6     1    1
    34    31    25   ar
    35     9     7    1
    36    19    13    1
    37    20    15    1
@<TRIPOS>MOLECULE
*****
 33 37 0 0 0
SMALL
GASTEIGER

@<TRIPOS>ATOM
      1 C          65.2636   91.6531   12.8177 C.3     1  UNL1        0.0795
      2 C          65.5094   92.5557   11.6451 C.3     1  UNL1        0.0178
      3 C          64.6093   92.4908   10.4470 C.3     1  UNL1        0.0029
      4 C          63.4633   91.5233   10.4213 C.3     1  UNL1        0.0178
      5 C          63.2175   90.6207   11.5939 C.3     1  UNL1        0.0799
      6 N          64.1176   90.6855   12.7921 N.3     1  UNL1       -0.1583
      7 C          62.0716   89.6531   11.5683 C.3     1  UNL1        0.0237
      8 C          60.9228   90.6125   11.4680 C.3     1  UNL1        0.0019
      9 C          60.6649   89.1355   11.5109 C.3     1  UNL1        0.0019
     10 C          62.8222   88.3578   11.6597 C.3     1  UNL1        0.0866
     11 C          62.4739   87.2229   10.7428 C.2     1  UNL1        0.2258
     12 O          61.9740   87.1395    9.3310 O.2     1  UNL1       -0.2749
     13 N          62.6103   85.8064   11.2173 N.am    1  UNL1       -0.2768
     14 C          63.0950   85.5248   12.6086 C.3     1  UNL1        0.1093
     15 C          63.2313   84.1084   13.0830 C.3     1  UNL1        0.0775
     16 C          63.2124   82.6090   13.1225 C.3     1  UNL1        0.0191
     17 C          62.7315   82.1164   11.7898 C.3     1  UNL1        0.0191
     18 C          62.4532   83.3112   10.9267 C.3     1  UNL1        0.0775
     19 C          62.2620   84.6714   10.3004 C.3     1  UNL1        0.1093
     20 N          62.7621   84.5424   11.7260 N.3     1  UNL1       -0.2709
     21 C          62.6896   85.2952   11.4739 C.3     1  UNL1        0.0897
     22 S          63.8718   89.7829   13.9646 S.O2    1  UNL1        0.0632
     23 O          64.6283   88.5330   13.6252 O.2     1  UNL1       -0.1528
     24 O          63.0309   90.8461   14.6067 O.2     1  UNL1       -0.1528
     25 C          63.6260   88.8803   15.1371 C.ar    1  UNL1        0.1222
     26 C          63.0739   89.4424   16.4134 C.ar    1  UNL1        0.0208
     27 C          62.8281   88.5398   17.5860 C.ar    1  UNL1        0.0128
     28 C          63.1345   87.0751   17.4822 C.ar    1  UNL1        0.0578
     29 CL         62.7761   86.4824   18.8127 Cl      1  UNL1       -0.0822
     30 C          63.6866   86.5130   16.2058 C.ar    1  UNL1        0.0128
     31 C          63.9324   87.4156   15.0333 C.ar    1  UNL1        0.0208
     32 C          67.6309   91.9748   13.8386 C.3     1  UNL1        0.0015
     33 C          66.1637   91.7180   14.0157 C.3     1  UNL1        0.0177
@<TRIPOS>BOND
     1    32    33    1
     2     1    33    1
     3     1     2    1
     4     2     3    1
     5     3     4    1
     6     4     5    1
     7     5     7    1
     8     7    10    1
     9    10    11    1
    10    11    12    2
    11    11    13   am
    12    13    14    1
    13    14    15    1
    14    15    16    1
    15    16    17    1
    16    17    18    1
    17    18    19    1
    18    18    20    1
    19    20    21    1
    20     7     8    1
    21     8     9    1
    22     5     6    1
    23     6    22    1
    24    22    23    2
    25    22    24    2
    26    22    25    1
    27    25    26   ar
    28    26    27   ar
    29    27    28   ar
    30    28    29    1
    31    28    30   ar
    32    30    31   ar
    33     6     1    1
    34    31    25   ar
    35     9     7    1
    36    19    13    1
    37    20    15    1
@<TRIPOS>MOLECULE
*****
 33 37 0 0 0
SMALL
GASTEIGER

@<TRIPOS>ATOM
      1 C          59.9668   88.8672    9.0766 C.3     1  UNL1        0.0795
      2 C          59.0447   88.2656    8.0578 C.3     1  UNL1        0.0178
      3 C          59.2234   86.8375    7.6351 C.3     1  UNL1        0.0029
      4 C          60.3241   86.0110    8.2311 C.3     1  UNL1        0.0178
      5 C          61.2462   86.6127    9.2499 C.3     1  UNL1        0.0799
      6 N          61.0675   88.0407    9.6726 N.3     1  UNL1       -0.1583
      7 C          62.3469   85.7862    9.8460 C.3     1  UNL1        0.0237
      8 C          63.3229   85.7917    8.7069 C.3     1  UNL1        0.0019
      9 C          63.6538   85.0613    9.9746 C.3     1  UNL1        0.0019
     10 C          61.7533   85.4936   11.1920 C.3     1  UNL1        0.0866
     11 C          62.6403   85.0806   12.3291 C.2     1  UNL1        0.2258
     12 O          63.5027   85.8279   13.3026 O.2     1  UNL1       -0.2749
     13 N          62.7872   83.6288   12.6766 N.am    1  UNL1       -0.2768
     14 C          62.0472   82.5900   11.8870 C.3     1  UNL1        0.1093
     15 C          62.1941   81.1382   12.2345 C.3     1  UNL1        0.0775
     16 C          62.6241   79.8691   12.9087 C.3     1  UNL1        0.0191
     17 C          63.5633   80.2304   14.0210 C.3     1  UNL1        0.0191
     18 C          63.7139   81.7228   14.0343 C.3     1  UNL1        0.0775
     19 C          63.6741   83.2157   13.8136 C.3     1  UNL1        0.1093
     20 N          62.8676   82.2839   12.9301 N.3     1  UNL1       -0.2709
     21 C          62.7895   83.0554   12.7454 C.3     1  UNL1        0.0897
     22 S          61.9896   88.6424   10.6914 S.O2    1  UNL1        0.0632
     23 O          61.3366   88.3251   12.0040 O.2     1  UNL1       -0.1528
     24 O          62.8923   89.1193    9.5926 O.2     1  UNL1       -0.1528
     25 C          62.9116   89.2440   11.7102 C.ar    1  UNL1        0.1222
     26 C          63.3790   90.6607   11.5546 C.ar    1  UNL1        0.0208
     27 C          64.3010   91.2624   12.5734 C.ar    1  UNL1        0.0128
     28 C          64.7555   90.4472   13.7478 C.ar    1  UNL1        0.0578
     29 CL         65.6519   91.3429   14.5505 Cl      1  UNL1       -0.0822
     30 C          64.2880   89.0305   13.9034 C.ar    1  UNL1        0.0128
     31 C          63.3660   88.4288   12.8846 C.ar    1  UNL1        0.0208
     32 C          59.4423   90.6185   10.9225 C.3     1  UNL1        0.0015
     33 C          59.7881   90.2952    9.4992 C.3     1  UNL1        0.0177
@<TRIPOS>BOND
     1    32    33    1
     2     1    33    1
     3     1     2    1
     4     2     3    1
     5     3     4    1
     6     4     5    1
     7     5     7    1
     8     7    10    1
     9    10    11    1
    10    11    12    2
    11    11    13   am
    12    13    14    1
    13    14    15    1
    14    15    16    1
    15    16    17    1
    16    17    18    1
    17    18    19    1
    18    18    20    1
    19    20    21    1
    20     7     8    1
    21     8     9    1
    22     5     6    1
    23     6    22    1
    24    22    23    2
    25    22    24    2
    26    22    25    1
    27    25    26   ar
    28    26    27   ar
    29    27    28   ar
    30    28    29    1
    31    28    30   ar
    32    30    31   ar
    33     6     1    1
    34    31    25   ar
    35     9     7    1
    36    19    13    1
    37    20    15    1
@<TRIPOS>MOLECULE
*****
 33 37 0 0 0
SMALL
GASTEIGER

@<TRIPOS>ATOM
      1 C          65.1532   91.6970   12.5029 C.3     1  UNL1        0.0795
      2 C          66.2577   92.3622   13.2695 C.3     1  UNL1        0.0178
      3 C          66.5363   91.9576   14.6868 C.3     1  UNL1        0.0029
      4 C          65.7104   90.8878   15.3374 C.3     1  UNL1        0.0178
      5 C          64.6059   90.2226   14.5708 C.3     1  UNL1        0.0799
      6 N          64.3273   90.6272   13.1535 N.3     1  UNL1       -0.1583
      7 C          63.7800   89.1528   15.2215 C.3     1  UNL1        0.0237
      8 C          62.9037   89.9974   16.0983 C.3     1  UNL1        0.0019
      9 C          62.7493   88.5053   16.0982 C.3     1  UNL1        0.0019
     10 C          64.3693   87.9367   14.5707 C.3     1  UNL1        0.0866
     11 C          64.1597   86.5830   15.1819 C.2     1  UNL1        0.2258
     12 O          64.2878   86.0366   16.5729 O.2     1  UNL1       -0.2749
     13 N          63.7255   85.4318   14.3239 N.am    1  UNL1       -0.2768
     14 C          63.5008   85.6342   12.8547 C.3     1  UNL1        0.1093
     15 C          63.0665   84.4830   11.9968 C.3     1  UNL1        0.0775
     16 C          62.6562   83.1105   11.5519 C.3     1  UNL1        0.0191
     17 C          62.6649   82.2121   12.7531 C.3     1  UNL1        0.0191
     18 C          63.0806   83.0293   13.9402 C.3     1  UNL1        0.0775
     19 C          63.5159   84.0780   14.9351 C.3     1  UNL1        0.1093
     20 N          63.3288   84.4328   13.4728 N.3     1  UNL1       -0.2709
     21 C          63.5596   85.0447   13.9287 C.3     1  UNL1        0.0897
     22 S          63.2229   89.9620   12.3869 S.O2    1  UNL1        0.0632
     23 O          63.8140   88.6500   11.9637 O.2     1  UNL1       -0.1528
     24 O          62.3384   91.1484   12.6319 O.2     1  UNL1       -0.1528
     25 C          62.1185   89.2968   11.6202 C.ar    1  UNL1        0.1222
     26 C          62.4454   88.3313   10.5199 C.ar    1  UNL1        0.0208
     27 C          61.3411   87.6660    9.7532 C.ar    1  UNL1        0.0128
     28 C          59.9098   87.9663   10.0869 C.ar    1  UNL1        0.0578
     29 CL         59.0839   87.1440    9.1426 Cl      1  UNL1       -0.0822
     30 C          59.5829   88.9319   11.1872 C.ar    1  UNL1        0.0128
     31 C          60.6872   89.5972   11.9539 C.ar    1  UNL1        0.0208
     32 C          65.7279   93.1411   10.4209 C.3     1  UNL1        0.0015
     33 C          64.8748   92.1017   11.0856 C.3     1  UNL1        0.0177
@<TRIPOS>BOND
     1    32    33    1
     2     1    33    1
     3     1     2    1
     4     2     3    1
     5     3     4    1
     6     4     5    1
     7     5     7    1
     8     7    10    1
     9    10    11    1
    10    11    12    2
    11    11    13   am
    12    13    14    1
    13    14    15    1
    14    15    16    1
    15    16    17    1
    16    17    18    1
    17    18    19    1
    18    18    20    1
    19    20    21    1
    20     7     8    1
    21     8     9    1
    22     5     6    1
    23     6    22    1
    24    22    23    2
    25    22    24    2
    26    22    25    1
    27    25    26   ar
    28    26    27   ar
    29    27    28   ar
    30    28    29    1
    31    28    30   ar
    32    30    31   ar
    33     6     1    1
    34    31    25   ar
    35     9     7    1
    36    19    13    1
    37    20    15    1
@<TRIPOS>MOLECULE
*****
 33 37 0 0 0
SMALL
GASTEIGER

@<TRIPOS>ATOM
      1 C          65.3491   91.5021   12.6653 C.3     1  UNL1        0.0795
      2 C          65.5898   92.4073   11.4937 C.3     1  UNL1        0.0178
      3 C          64.6000   92.4561   10.3677 C.3     1  UNL1        0.0029
      4 C          63.3694   91.5995   10.4133 C.3     1  UNL1        0.0178
      5 C          63.1287   90.6943   11.5849 C.3     1  UNL1        0.0799
      6 N          64.1185   90.6455   12.7109 N.3     1  UNL1       -0.1583
      7 C          61.8982   89.8377   11.6304 C.3     1  UNL1        0.0237
      8 C          61.1483   90.5177   12.7374 C.3     1  UNL1        0.0019
      9 C          60.5556   89.3206   12.0549 C.3     1  UNL1        0.0019
     10 C          62.2206   88.8603   10.5394 C.3     1  UNL1        0.0866
     11 C          61.1400   88.3872    9.6128 C.2     1  UNL1        0.2258
     12 O          59.7531   88.8648    9.2995 O.2     1  UNL1       -0.2749
     13 N          61.3658   87.1797    8.7518 N.am    1  UNL1       -0.2768
     14 C          62.6721   86.4455    8.8174 C.3     1  UNL1        0.1093
     15 C          62.8978   85.2381    7.9564 C.3     1  UNL1        0.0775
     16 C          62.6867   84.1364    6.9605 C.3     1  UNL1        0.0191
     17 C          61.3086   84.2872    6.3878 C.3     1  UNL1        0.0191
     18 C          60.6680   85.4821    7.0296 C.3     1  UNL1        0.0775
     19 C          60.2852   86.7066    7.8253 C.3     1  UNL1        0.1093
     20 N          61.6502   86.0698    7.9991 N.3     1  UNL1       -0.2709
     21 C          61.5303   86.7114    8.4567 C.3     1  UNL1        0.0897
     22 S          63.8778   89.7403   13.8825 S.O2    1  UNL1        0.0632
     23 O          64.1468   88.3674   13.3415 O.2     1  UNL1       -0.1528
     24 O          63.5406   90.9295   14.7320 O.2     1  UNL1       -0.1528
     25 C          63.6372   88.8350   15.0540 C.ar    1  UNL1        0.1222
     26 C          63.0742   89.3911   16.3282 C.ar    1  UNL1        0.0208
     27 C          62.8335   88.4859   17.4998 C.ar    1  UNL1        0.0128
     28 C          63.1558   87.0245   17.3971 C.ar    1  UNL1        0.0578
     29 CL         62.7986   86.4280   18.7262 Cl      1  UNL1       -0.0822
     30 C          63.7187   86.4684   16.1228 C.ar    1  UNL1        0.0128
     31 C          63.9594   87.3736   14.9512 C.ar    1  UNL1        0.0208
     32 C          67.6626   92.1461   13.6567 C.3     1  UNL1        0.0015
     33 C          66.3389   91.4534   13.7912 C.3     1  UNL1        0.0177
@<TRIPOS>BOND
     1    32    33    1
     2     1    33    1
     3     1     2    1
     4     2     3    1
     5     3     4    1
     6     4     5    1
     7     5     7    1
     8     7    10    1
     9    10    11    1
    10    11    12    2
    11    11    13   am
    12    13    14    1
    13    14    15    1
    14    15    16    1
    15    16    17    1
    16    17    18    1
    17    18    19    1
    18    18    20    1
    19    20    21    1
    20     7     8    1
    21     8     9    1
    22     5     6    1
    23     6    22    1
    24    22    23    2
    25    22    24    2
    26    22    25    1
    27    25    26   ar
    28    26    27   ar
    29    27    28   ar
    30    28    29    1
    31    28    30   ar
    32    30    31   ar
    33     6     1    1
    34    31    25   ar
    35     9     7    1
    36    19    13    1
    37    20    15    1
@<TRIPOS>MOLECULE
*****
 33 37 0 0 0
SMALL
GASTEIGER

@<TRIPOS>ATOM
      1 C          65.9838   91.9250   13.2823 C.3     1  UNL1        0.0795
      2 C          66.3859   92.9440   12.2577 C.3     1  UNL1        0.0178
      3 C          65.5392   93.1555   11.0377 C.3     1  UNL1        0.0029
      4 C          64.2903   92.3481   10.8424 C.3     1  UNL1        0.0178
      5 C          63.8881   91.3290   11.8671 C.3     1  UNL1        0.0799
      6 N          64.7348   91.1175   13.0870 N.3     1  UNL1       -0.1583
      7 C          62.6392   90.5216   11.6717 C.3     1  UNL1        0.0237
      8 C          61.7090   91.2534   12.5933 C.3     1  UNL1        0.0019
      9 C          61.2178   90.0656   11.8200 C.3     1  UNL1        0.0019
     10 C          63.1355   89.5093   10.6824 C.3     1  UNL1        0.0866
     11 C          62.4853   88.1601   10.5997 C.2     1  UNL1        0.2258
     12 O          62.6912   86.8585   11.3162 O.2     1  UNL1       -0.2749
     13 N          61.3685   87.9240    9.6264 N.am    1  UNL1       -0.2768
     14 C          60.9020   89.0372    8.7359 C.3     1  UNL1        0.1093
     15 C          59.7852   88.8012    7.7627 C.3     1  UNL1        0.0775
     16 C          58.6904   88.1374    6.9812 C.3     1  UNL1        0.0191
     17 C          58.5844   86.7157    7.4477 C.3     1  UNL1        0.0191
     18 C          59.6137   86.5008    8.5174 C.3     1  UNL1        0.0775
     19 C          60.7184   86.5748    9.5438 C.3     1  UNL1        0.1093
     20 N          60.3559   87.7897    8.7121 N.3     1  UNL1       -0.2709
     21 C          60.9494   87.9152    9.2293 C.3     1  UNL1        0.0897
     22 S          64.3327   90.0985   14.1116 S.O2    1  UNL1        0.0632
     23 O          64.7007   88.7872   13.4832 O.2     1  UNL1       -0.1528
     24 O          63.8532   91.1958   15.0147 O.2     1  UNL1       -0.1528
     25 C          63.9306   89.0794   15.1362 C.ar    1  UNL1        0.1222
     26 C          63.2413   89.5138   16.3956 C.ar    1  UNL1        0.0208
     27 C          62.8392   88.4948   17.4202 C.ar    1  UNL1        0.0128
     28 C          63.1263   87.0413   17.1854 C.ar    1  UNL1        0.0578
     29 CL         62.5997   86.3163   18.3883 Cl      1  UNL1       -0.0822
     30 C          63.8156   86.6069   15.9260 C.ar    1  UNL1        0.0128
     31 C          64.2177   87.6260   14.9014 C.ar    1  UNL1        0.0208
     32 C          66.7791   92.6997   15.6312 C.3     1  UNL1        0.0015
     33 C          66.8305   91.7135   14.5022 C.3     1  UNL1        0.0177
@<TRIPOS>BOND
     1    32    33    1
     2     1    33    1
     3     1     2    1
     4     2     3    1
     5     3     4    1
     6     4     5    1
     7     5     7    1
     8     7    10    1
     9    10    11    1
    10    11    12    2
    11    11    13   am
    12    13    14    1
    13    14    15    1
    14    15    16    1
    15    16    17    1
    16    17    18    1
    17    18    19    1
    18    18    20    1
    19    20    21    1
    20     7     8    1
    21     8     9    1
    22     5     6    1
    23     6    22    1
    24    22    23    2
    25    22    24    2
    26    22    25    1
    27    25    26   ar
    28    26    27   ar
    29    27    28   ar
    30    28    29    1
    31    28    30   ar
    32    30    31   ar
    33     6     1    1
    34    31    25   ar
    35     9     7    1
    36    19    13    1
    37    20    15    1
@<TRIPOS>MOLECULE
*****
 33 37 0 0 0
SMALL
GASTEIGER

@<TRIPOS>ATOM
      1 C          62.8023   82.6661   14.3043 C.3     1  UNL1        0.0795
      2 C          62.4819   81.2139   14.1079 C.3     1  UNL1        0.0178
      3 C          62.3905   80.6467   12.7223 C.3     1  UNL1        0.0029
      4 C          62.6195   81.5317   11.5331 C.3     1  UNL1        0.0178
      5 C          62.9400   82.9839   11.7295 C.3     1  UNL1        0.0799
      6 N          63.0314   83.5511   13.1151 N.3     1  UNL1       -0.1583
      7 C          63.1690   83.8688   10.5402 C.3     1  UNL1        0.0237
      8 C          64.5636   83.4559   10.1730 C.3     1  UNL1        0.0019
      9 C          63.8547   84.5037    9.3668 C.3     1  UNL1        0.0019
     10 C          61.8541   84.5891   10.4944 C.3     1  UNL1        0.0866
     11 C          61.5980   85.6156    9.4310 C.2     1  UNL1        0.2258
     12 O          61.7989   85.6491    7.9449 O.2     1  UNL1       -0.2749
     13 N          61.0137   86.9473    9.7993 N.am    1  UNL1       -0.2768
     14 C          60.6856   87.2523   11.2308 C.3     1  UNL1        0.1093
     15 C          60.1014   88.5839   11.5990 C.3     1  UNL1        0.0775
     16 C          59.5586   89.9790   11.5041 C.3     1  UNL1        0.0191
     17 C          59.6002   90.3955   10.0637 C.3     1  UNL1        0.0191
     18 C          60.1687   89.2578    9.2683 C.3     1  UNL1        0.0775
     19 C          60.7576   87.9738    8.7359 C.3     1  UNL1        0.1093
     20 N          60.4784   88.1382   10.2172 N.3     1  UNL1       -0.2709
     21 C          60.7889   87.4305   10.0216 C.3     1  UNL1        0.0897
     22 S          63.3518   85.0032   13.3115 S.O2    1  UNL1        0.0632
     23 O          62.0264   85.6902   13.1657 O.2     1  UNL1       -0.1528
     24 O          64.7976   84.6572   13.5106 O.2     1  UNL1       -0.1528
     25 C          63.6722   86.4554   13.5079 C.ar    1  UNL1        0.1222
     26 C          64.3541   86.9096   14.7643 C.ar    1  UNL1        0.0208
     27 C          64.6745   88.3618   14.9608 C.ar    1  UNL1        0.0128
     28 C          64.3129   89.3596   13.9008 C.ar    1  UNL1        0.0578
     29 CL         64.7696   90.6927   14.4150 Cl      1  UNL1       -0.0822
     30 C          63.6310   88.9054   12.6444 C.ar    1  UNL1        0.0128
     31 C          63.3106   87.4532   12.4479 C.ar    1  UNL1        0.0208
     32 C          62.0487   84.4110   16.0756 C.3     1  UNL1        0.0015
     33 C          62.8937   83.2332   15.6899 C.3     1  UNL1        0.0177
@<TRIPOS>BOND
     1    32    33    1
     2     1    33    1
     3     1     2    1
     4     2     3    1
     5     3     4    1
     6     4     5    1
     7     5     7    1
     8     7    10    1
     9    10    11    1
    10    11    12    2
    11    11    13   am
    12    13    14    1
    13    14    15    1
    14    15    16    1
    15    16    17    1
    16    17    18    1
    17    18    19    1
    18    18    20    1
    19    20    21    1
    20     7     8    1
    21     8     9    1
    22     5     6    1
    23     6    22    1
    24    22    23    2
    25    22    24    2
    26    22    25    1
    27    25    26   ar
    28    26    27   ar
    29    27    28   ar
    30    28    29    1
    31    28    30   ar
    32    30    31   ar
    33     6     1    1
    34    31    25   ar
    35     9     7    1
    36    19    13    1
    37    20    15    1
