@<TRIPOS>MOLECULE
*****
 28 30 0 0 0
SMALL
GASTEIGER

@<TRIPOS>ATOM
      1 C          60.3355   90.7119   11.2548 C.3     1  UNL1        0.0290
      2 C          61.0868   89.4144   11.3007 C.3     1  UNL1        0.1259
      3 C          60.1307   89.0037   10.2204 C.3     1  UNL1        0.0487
      4 C          60.4582   87.5950    9.8224 C.3     1  UNL1        0.1004
      5 N          61.6167   87.1351   10.6569 N.am    1  UNL1       -0.2573
      6 C          62.0052   88.2595   11.5705 C.2     1  UNL1        0.2451
      7 O          63.1169   88.2336   12.5773 O.2     1  UNL1       -0.2728
      8 C          62.2716   85.7873   10.5896 C.ar    1  UNL1        0.0539
      9 C          62.3243   84.9171   11.8102 C.ar    1  UNL1        0.0158
     10 C          62.9792   83.5694   11.7429 C.ar    1  UNL1        0.0127
     11 C          63.5816   83.0917   10.4548 C.ar    1  UNL1        0.0578
     12 CL         64.2366   81.7440   10.3875 Cl      1  UNL1       -0.0822
     13 C          63.5290   83.9619    9.2342 C.ar    1  UNL1        0.0127
     14 C          62.8741   85.3097    9.3016 C.ar    1  UNL1        0.0158
     15 N          61.8858   90.0963   12.3715 N.pl3   1  UNL1       -0.3285
     16 H          61.6103   90.0224   13.3137 H       1  UNL1        0.1471
     17 C          63.1048   90.8908   12.0066 C.ar    1  UNL1        0.0449
     18 C          63.3514   91.2718   10.5769 C.ar    1  UNL1        0.0145
     19 C          64.5703   92.0663   10.2121 C.ar    1  UNL1        0.0058
     20 C          65.5425   92.4798   11.2770 C.ar    1  UNL1        0.0554
     21 C          65.2958   92.0988   12.7066 C.ar    1  UNL1        0.0058
     22 C          64.0769   91.3043   13.0714 C.ar    1  UNL1        0.0145
     23 C          66.7614   93.2743   10.9121 C.2     1  UNL1        0.2677
     24 O          66.8553   94.7217   11.2944 O.2     1  UNL1       -0.2681
     25 N          67.8863   92.6214   10.1649 N.am    1  UNL1       -0.1934
     26 O          69.1052   93.4160    9.8000 O.3     1  UNL1       -0.2949
     27 H          67.8246   91.6715    9.9139 H       1  UNL1        0.1825
     28 H          69.0050   94.3265   10.1190 H       1  UNL1        0.2414
@<TRIPOS>BOND
     1     2     1    1
     2     2    15    1
     3    15    17    1
     4    17    18   ar
     5    18    19   ar
     6    19    20   ar
     7    20    23    1
     8    23    24    2
     9    23    25   am
    10    25    26    1
    11    20    21   ar
    12    21    22   ar
    13     2     3    1
    14     3     4    1
    15     4     5    1
    16     5     8    1
    17     8     9   ar
    18     9    10   ar
    19    10    11   ar
    20    11    12    1
    21    11    13   ar
    22    13    14   ar
    23     5     6   am
    24     6     7    2
    25     6     2    1
    26    22    17   ar
    27    14     8   ar
    28    15    16    1
    29    25    27    1
    30    26    28    1
@<TRIPOS>MOLECULE
*****
 28 30 0 0 0
SMALL
GASTEIGER

@<TRIPOS>ATOM
      1 C          64.9435   91.7449   16.8599 C.3     1  UNL1        0.0290
      2 C          65.1304   92.0861   15.4113 C.3     1  UNL1        0.1259
      3 C          66.3930   92.7390   15.8903 C.3     1  UNL1        0.0487
      4 C          67.0882   93.3324   14.7008 C.3     1  UNL1        0.1004
      5 N          66.2551   93.0462   13.4867 N.am    1  UNL1       -0.2573
      6 C          65.0451   92.2760   13.9258 C.2     1  UNL1        0.2451
      7 O          63.9433   91.7823   13.0356 O.2     1  UNL1       -0.2728
      8 C          66.5757   93.4580   12.0805 C.ar    1  UNL1        0.0539
      9 C          66.2676   94.8512   11.6181 C.ar    1  UNL1        0.0158
     10 C          66.5882   95.2630   10.2119 C.ar    1  UNL1        0.0127
     11 C          67.2169   94.2814    9.2678 C.ar    1  UNL1        0.0578
     12 CL         67.5375   94.6932    7.8615 Cl      1  UNL1       -0.0822
     13 C          67.5251   92.8882    9.7301 C.ar    1  UNL1        0.0127
     14 C          67.2045   92.4764   11.1364 C.ar    1  UNL1        0.0158
     15 N          63.8287   91.3620   15.2351 N.pl3   1  UNL1       -0.3285
     16 H          63.0178   91.8609   14.9847 H       1  UNL1        0.1471
     17 C          63.7624   89.8775   15.4405 C.ar    1  UNL1        0.0449
     18 C          64.3905   88.9532   14.4400 C.ar    1  UNL1        0.0145
     19 C          64.3243   87.4688   14.6454 C.ar    1  UNL1        0.0058
     20 C          63.6299   86.9088   15.8513 C.ar    1  UNL1        0.0554
     21 C          63.0018   87.8331   16.8518 C.ar    1  UNL1        0.0058
     22 C          63.0681   89.3175   16.6464 C.ar    1  UNL1        0.0145
     23 C          63.5637   85.4243   16.0567 C.2     1  UNL1        0.2677
     24 O          62.4311   84.8249   16.8363 O.2     1  UNL1       -0.2681
     25 N          64.6301   84.5394   15.4825 N.am    1  UNL1       -0.1934
     26 O          64.5639   83.0550   15.6879 O.3     1  UNL1       -0.2949
     27 H          65.3735   84.9329   14.9709 H       1  UNL1        0.1825
     28 H          63.7755   82.8355   16.2087 H       1  UNL1        0.2414
@<TRIPOS>BOND
     1     2     1    1
     2     2    15    1
     3    15    17    1
     4    17    18   ar
     5    18    19   ar
     6    19    20   ar
     7    20    23    1
     8    23    24    2
     9    23    25   am
    10    25    26    1
    11    20    21   ar
    12    21    22   ar
    13     2     3    1
    14     3     4    1
    15     4     5    1
    16     5     8    1
    17     8     9   ar
    18     9    10   ar
    19    10    11   ar
    20    11    12    1
    21    11    13   ar
    22    13    14   ar
    23     5     6   am
    24     6     7    2
    25     6     2    1
    26    22    17   ar
    27    14     8   ar
    28    15    16    1
    29    25    27    1
    30    26    28    1
@<TRIPOS>MOLECULE
*****
 28 30 0 0 0
SMALL
GASTEIGER

@<TRIPOS>ATOM
      1 C          64.4347   90.4644   15.2262 C.3     1  UNL1        0.0290
      2 C          64.7592   91.2528   13.9921 C.3     1  UNL1        0.1259
      3 C          65.7980   91.8928   14.8646 C.3     1  UNL1        0.0487
      4 C          66.5332   92.9086   14.0413 C.3     1  UNL1        0.1004
      5 N          65.9487   92.8963   12.6599 N.am    1  UNL1       -0.2573
      6 C          64.8523   91.8730   12.6295 C.2     1  UNL1        0.2451
      7 O          63.9989   91.5301   11.4445 O.2     1  UNL1       -0.2728
      8 C          66.3841   93.7563   11.5107 C.ar    1  UNL1        0.0539
      9 C          66.1479   95.2370   11.5503 C.ar    1  UNL1        0.0158
     10 C          66.5833   96.0970   10.4010 C.ar    1  UNL1        0.0127
     11 C          67.2551   95.4763    9.2121 C.ar    1  UNL1        0.0578
     12 CL         67.6905   96.3363    8.0629 Cl      1  UNL1       -0.0822
     13 C          67.4913   93.9956    9.1725 C.ar    1  UNL1        0.0127
     14 C          67.0559   93.1356   10.3218 C.ar    1  UNL1        0.0158
     15 N          63.6526   90.4480   13.3776 N.pl3   1  UNL1       -0.3285
     16 H          62.8932   90.9034   12.9473 H       1  UNL1        0.1471
     17 C          63.7031   88.9494   13.4187 C.ar    1  UNL1        0.0449
     18 C          64.3794   88.2528   14.5621 C.ar    1  UNL1        0.0145
     19 C          64.4298   86.7543   14.6032 C.ar    1  UNL1        0.0058
     20 C          63.8039   85.9523   13.5009 C.ar    1  UNL1        0.0554
     21 C          63.1275   86.6488   12.3575 C.ar    1  UNL1        0.0058
     22 C          63.0771   88.1474   12.3164 C.ar    1  UNL1        0.0145
     23 C          63.8543   84.4536   13.5420 C.2     1  UNL1        0.2677
     24 O          63.0499   83.7039   14.5622 O.2     1  UNL1       -0.2681
     25 N          64.7091   83.7048   12.5629 N.am    1  UNL1       -0.1934
     26 O          64.7595   82.2062   12.6040 O.3     1  UNL1       -0.2949
     27 H          65.2370   84.1969   11.8933 H       1  UNL1        0.1825
     28 H          64.1863   81.8828   13.3167 H       1  UNL1        0.2414
@<TRIPOS>BOND
     1     2     1    1
     2     2    15    1
     3    15    17    1
     4    17    18   ar
     5    18    19   ar
     6    19    20   ar
     7    20    23    1
     8    23    24    2
     9    23    25   am
    10    25    26    1
    11    20    21   ar
    12    21    22   ar
    13     2     3    1
    14     3     4    1
    15     4     5    1
    16     5     8    1
    17     8     9   ar
    18     9    10   ar
    19    10    11   ar
    20    11    12    1
    21    11    13   ar
    22    13    14   ar
    23     5     6   am
    24     6     7    2
    25     6     2    1
    26    22    17   ar
    27    14     8   ar
    28    15    16    1
    29    25    27    1
    30    26    28    1
@<TRIPOS>MOLECULE
*****
 28 30 0 0 0
SMALL
GASTEIGER

@<TRIPOS>ATOM
      1 C          64.2188   88.6467   14.9396 C.3     1  UNL1        0.0290
      2 C          63.8851   87.4873   14.0482 C.3     1  UNL1        0.1259
      3 C          64.7428   86.7099   15.0022 C.3     1  UNL1        0.0487
      4 C          64.7745   85.2832   14.5400 C.3     1  UNL1        0.1004
      5 N          63.9364   85.1789   13.3003 N.am    1  UNL1       -0.2573
      6 C          63.3868   86.5411   12.9964 C.2     1  UNL1        0.2451
      7 O          62.4952   86.8949   11.8431 O.2     1  UNL1       -0.2728
      8 C          63.6911   83.9314   12.5043 C.ar    1  UNL1        0.0539
      9 C          64.3215   83.7677   11.1531 C.ar    1  UNL1        0.0158
     10 C          64.0762   82.5203   10.3572 C.ar    1  UNL1        0.0127
     11 C          63.2004   81.4364   10.9124 C.ar    1  UNL1        0.0578
     12 CL         62.9551   80.1889   10.1164 Cl      1  UNL1       -0.0822
     13 C          62.5700   81.6001   12.2636 C.ar    1  UNL1        0.0127
     14 C          62.8153   82.8476   13.0595 C.ar    1  UNL1        0.0158
     15 N          63.0972   88.5070   13.2806 N.pl3   1  UNL1       -0.3285
     16 H          62.1462   88.3472   13.0826 H       1  UNL1        0.1471
     17 C          63.7584   89.7703   12.8146 C.ar    1  UNL1        0.0449
     18 C          63.4359   90.3303   11.4610 C.ar    1  UNL1        0.0145
     19 C          64.0971   91.5935   10.9951 C.ar    1  UNL1        0.0058
     20 C          65.0806   92.2968   11.8828 C.ar    1  UNL1        0.0554
     21 C          65.4030   91.7368   13.2365 C.ar    1  UNL1        0.0058
     22 C          64.7419   90.4736   13.7024 C.ar    1  UNL1        0.0145
     23 C          65.7417   93.5601   11.4169 C.2     1  UNL1        0.2677
     24 O          66.7446   94.2493   12.2939 O.2     1  UNL1       -0.2681
     25 N          65.3999   94.1342   10.0739 N.am    1  UNL1       -0.1934
     26 O          66.0610   95.3975    9.6079 O.3     1  UNL1       -0.2949
     27 H          64.7417   93.6818    9.4983 H       1  UNL1        0.1825
     28 H          66.6769   95.7103   10.2889 H       1  UNL1        0.2414
@<TRIPOS>BOND
     1     2     1    1
     2     2    15    1
     3    15    17    1
     4    17    18   ar
     5    18    19   ar
     6    19    20   ar
     7    20    23    1
     8    23    24    2
     9    23    25   am
    10    25    26    1
    11    20    21   ar
    12    21    22   ar
    13     2     3    1
    14     3     4    1
    15     4     5    1
    16     5     8    1
    17     8     9   ar
    18     9    10   ar
    19    10    11   ar
    20    11    12    1
    21    11    13   ar
    22    13    14   ar
    23     5     6   am
    24     6     7    2
    25     6     2    1
    26    22    17   ar
    27    14     8   ar
    28    15    16    1
    29    25    27    1
    30    26    28    1
@<TRIPOS>MOLECULE
*****
 28 30 0 0 0
SMALL
GASTEIGER

@<TRIPOS>ATOM
      1 C          61.8037   89.8994   10.5897 C.3     1  UNL1        0.0290
      2 C          62.2316   88.6115   11.2287 C.3     1  UNL1        0.1259
      3 C          61.6552   87.9889    9.9916 C.3     1  UNL1        0.0487
      4 C          61.8287   86.5027   10.0967 C.3     1  UNL1        0.1004
      5 N          62.5122   86.2067   11.3987 N.am    1  UNL1       -0.2573
      6 C          62.7612   87.5101   12.0983 C.2     1  UNL1        0.2451
      7 O          63.4236   87.6818   13.4332 O.2     1  UNL1       -0.2728
      8 C          62.8818   84.8463   11.9112 C.ar    1  UNL1        0.0539
      9 C          63.4280   83.8134   10.9706 C.ar    1  UNL1        0.0158
     10 C          63.7977   82.4530   11.4830 C.ar    1  UNL1        0.0127
     11 C          63.6211   82.1254   12.9361 C.ar    1  UNL1        0.0578
     12 CL         63.9907   80.7650   13.4486 Cl      1  UNL1       -0.0822
     13 C          63.0749   83.1583   13.8767 C.ar    1  UNL1        0.0127
     14 C          62.7053   84.5188   13.3643 C.ar    1  UNL1        0.0158
     15 N          62.7185   89.5033   12.3321 N.pl3   1  UNL1       -0.3285
     16 H          62.4478   89.3281   13.2623 H       1  UNL1        0.1471
     17 C          63.6178   90.6621   12.0183 C.ar    1  UNL1        0.0449
     18 C          63.6743   91.2115   10.6237 C.ar    1  UNL1        0.0145
     19 C          64.5736   92.3702   10.3099 C.ar    1  UNL1        0.0058
     20 C          65.4165   92.9796   11.3908 C.ar    1  UNL1        0.0554
     21 C          65.3600   92.4302   12.7854 C.ar    1  UNL1        0.0058
     22 C          64.4607   91.2715   13.0991 C.ar    1  UNL1        0.0145
     23 C          66.3159   94.1384   11.0770 C.2     1  UNL1        0.2677
     24 O          67.6887   93.8940   10.5243 O.2     1  UNL1       -0.2681
     25 N          65.8423   95.5414   11.3159 N.am    1  UNL1       -0.1934
     26 O          66.7417   96.7002   11.0021 O.3     1  UNL1       -0.2949
     27 H          64.9413   95.7018   11.6786 H       1  UNL1        0.1825
     28 H          67.5855   96.3701   10.6558 H       1  UNL1        0.2414
@<TRIPOS>BOND
     1     2     1    1
     2     2    15    1
     3    15    17    1
     4    17    18   ar
     5    18    19   ar
     6    19    20   ar
     7    20    23    1
     8    23    24    2
     9    23    25   am
    10    25    26    1
    11    20    21   ar
    12    21    22   ar
    13     2     3    1
    14     3     4    1
    15     4     5    1
    16     5     8    1
    17     8     9   ar
    18     9    10   ar
    19    10    11   ar
    20    11    12    1
    21    11    13   ar
    22    13    14   ar
    23     5     6   am
    24     6     7    2
    25     6     2    1
    26    22    17   ar
    27    14     8   ar
    28    15    16    1
    29    25    27    1
    30    26    28    1
@<TRIPOS>MOLECULE
*****
 28 30 0 0 0
SMALL
GASTEIGER

@<TRIPOS>ATOM
      1 C          61.6368   89.2193   10.0470 C.3     1  UNL1        0.0290
      2 C          62.5560   89.7519   11.1059 C.3     1  UNL1        0.1259
      3 C          62.9642   90.7252   10.0401 C.3     1  UNL1        0.0487
      4 C          64.0101   91.6326   10.6169 C.3     1  UNL1        0.1004
      5 N          64.2484   91.2200   12.0392 N.am    1  UNL1       -0.2573
      6 C          63.3497   90.0577   12.3414 C.2     1  UNL1        0.2451
      7 O          63.2604   89.3291   13.6496 O.2     1  UNL1       -0.2728
      8 C          65.2155   91.8578   12.9920 C.ar    1  UNL1        0.0539
      9 C          65.6430   91.1254   14.2292 C.ar    1  UNL1        0.0158
     10 C          66.6101   91.7632   15.1820 C.ar    1  UNL1        0.0127
     11 C          67.1498   93.1335   14.8976 C.ar    1  UNL1        0.0578
     12 CL         68.1170   93.7713   15.8504 Cl      1  UNL1       -0.0822
     13 C          66.7224   93.8660   13.6604 C.ar    1  UNL1        0.0127
     14 C          65.7552   93.2282   12.7076 C.ar    1  UNL1        0.0158
     15 N          61.9557   88.6672   11.9504 N.pl3   1  UNL1       -0.3285
     16 H          61.3088   88.8946   12.6569 H       1  UNL1        0.1471
     17 C          62.3409   87.2362   11.7184 C.ar    1  UNL1        0.0449
     18 C          63.0179   86.4560   12.8060 C.ar    1  UNL1        0.0145
     19 C          63.4031   85.0250   12.5740 C.ar    1  UNL1        0.0058
     20 C          63.1113   84.3742   11.2544 C.ar    1  UNL1        0.0554
     21 C          62.4343   85.1544   10.1668 C.ar    1  UNL1        0.0058
     22 C          62.0491   86.5854   10.3988 C.ar    1  UNL1        0.0145
     23 C          63.4965   82.9431   11.0225 C.2     1  UNL1        0.2677
     24 O          64.7020   82.6162   10.1919 O.2     1  UNL1       -0.2681
     25 N          62.6763   81.8392   11.6211 N.am    1  UNL1       -0.1934
     26 O          63.0615   80.4081   11.3891 O.3     1  UNL1       -0.2949
     27 H          61.8851   82.0538   12.1662 H       1  UNL1        0.1825
     28 H          63.8576   80.3731   10.8360 H       1  UNL1        0.2414
@<TRIPOS>BOND
     1     2     1    1
     2     2    15    1
     3    15    17    1
     4    17    18   ar
     5    18    19   ar
     6    19    20   ar
     7    20    23    1
     8    23    24    2
     9    23    25   am
    10    25    26    1
    11    20    21   ar
    12    21    22   ar
    13     2     3    1
    14     3     4    1
    15     4     5    1
    16     5     8    1
    17     8     9   ar
    18     9    10   ar
    19    10    11   ar
    20    11    12    1
    21    11    13   ar
    22    13    14   ar
    23     5     6   am
    24     6     7    2
    25     6     2    1
    26    22    17   ar
    27    14     8   ar
    28    15    16    1
    29    25    27    1
    30    26    28    1
@<TRIPOS>MOLECULE
*****
 28 30 0 0 0
SMALL
GASTEIGER

@<TRIPOS>ATOM
      1 C          63.6657   89.7242   15.0050 C.3     1  UNL1        0.0290
      2 C          64.0908   90.6599   13.9123 C.3     1  UNL1        0.1259
      3 C          65.4405   90.5485   14.5573 C.3     1  UNL1        0.0487
      4 C          66.3991   91.3977   13.7762 C.3     1  UNL1        0.1004
      5 N          65.6418   92.0339   12.6485 N.am    1  UNL1       -0.2573
      6 C          64.2152   91.5779   12.7326 C.2     1  UNL1        0.2451
      7 O          63.1075   91.9710   11.8006 O.2     1  UNL1       -0.2728
      8 C          66.2111   92.9630   11.6177 C.ar    1  UNL1        0.0539
      9 C          66.9776   92.4113   10.4523 C.ar    1  UNL1        0.0158
     10 C          67.5469   93.3404    9.4215 C.ar    1  UNL1        0.0127
     11 C          67.3497   94.8213    9.5560 C.ar    1  UNL1        0.0578
     12 CL         67.9190   95.7504    8.5251 Cl      1  UNL1       -0.0822
     13 C          66.5832   95.3730   10.7213 C.ar    1  UNL1        0.0127
     14 C          66.0139   94.4439   11.7521 C.ar    1  UNL1        0.0158
     15 N          62.6523   90.5757   13.4958 N.pl3   1  UNL1       -0.3285
     16 H          61.9792   91.1459   13.9327 H       1  UNL1        0.1471
     17 C          62.2394   89.6227   12.4134 C.ar    1  UNL1        0.0449
     18 C          60.9839   89.8736   11.6320 C.ar    1  UNL1        0.0145
     19 C          60.5711   88.9206   10.5497 C.ar    1  UNL1        0.0058
     20 C          61.4138   87.7167   10.2489 C.ar    1  UNL1        0.0554
     21 C          62.6693   87.4658   11.0303 C.ar    1  UNL1        0.0058
     22 C          63.0821   88.4188   12.1126 C.ar    1  UNL1        0.0145
     23 C          61.0009   86.7637    9.1666 C.2     1  UNL1        0.2677
     24 O          61.9462   85.6923    8.7100 O.2     1  UNL1       -0.2681
     25 N          59.6428   86.8822    8.5409 N.am    1  UNL1       -0.1934
     26 O          59.2299   85.9292    7.4585 O.3     1  UNL1       -0.2949
     27 H          59.0224   87.5854    8.8406 H       1  UNL1        0.1825
     28 H          59.9517   85.3049    7.2847 H       1  UNL1        0.2414
@<TRIPOS>BOND
     1     2     1    1
     2     2    15    1
     3    15    17    1
     4    17    18   ar
     5    18    19   ar
     6    19    20   ar
     7    20    23    1
     8    23    24    2
     9    23    25   am
    10    25    26    1
    11    20    21   ar
    12    21    22   ar
    13     2     3    1
    14     3     4    1
    15     4     5    1
    16     5     8    1
    17     8     9   ar
    18     9    10   ar
    19    10    11   ar
    20    11    12    1
    21    11    13   ar
    22    13    14   ar
    23     5     6   am
    24     6     7    2
    25     6     2    1
    26    22    17   ar
    27    14     8   ar
    28    15    16    1
    29    25    27    1
    30    26    28    1
@<TRIPOS>MOLECULE
*****
 28 30 0 0 0
SMALL
GASTEIGER

@<TRIPOS>ATOM
      1 C          61.3845   89.5098   12.8404 C.3     1  UNL1        0.0290
      2 C          62.6852   90.2301   13.0381 C.3     1  UNL1        0.1259
      3 C          62.5609   89.7407   14.4505 C.3     1  UNL1        0.0487
      4 C          63.7540   90.2295   15.2172 C.3     1  UNL1        0.1004
      5 N          64.6157   91.0209   14.2786 N.am    1  UNL1       -0.2573
      6 C          63.9552   91.0213   12.9318 C.2     1  UNL1        0.2451
      7 O          64.4737   91.6947   11.6957 O.2     1  UNL1       -0.2728
      8 C          65.9105   91.6937   14.6257 C.ar    1  UNL1        0.0539
      9 C          66.0343   92.4678   15.9045 C.ar    1  UNL1        0.0158
     10 C          67.3292   93.1407   16.2517 C.ar    1  UNL1        0.0127
     11 C          68.5004   93.0395   15.3200 C.ar    1  UNL1        0.0578
     12 CL         69.7952   93.7124   15.6672 Cl      1  UNL1       -0.0822
     13 C          68.3766   92.2654   14.0412 C.ar    1  UNL1        0.0127
     14 C          67.0817   91.5925   13.6940 C.ar    1  UNL1        0.0158
     15 N          62.5377   90.5689   11.5843 N.pl3   1  UNL1       -0.3285
     16 H          62.8104   91.4559   11.2555 H       1  UNL1        0.1471
     17 C          61.9748   89.5562   10.6316 C.ar    1  UNL1        0.0449
     18 C          62.6168   88.2064   10.5061 C.ar    1  UNL1        0.0145
     19 C          62.0538   87.1938    9.5534 C.ar    1  UNL1        0.0058
     20 C          60.8488   87.5310    8.7262 C.ar    1  UNL1        0.0554
     21 C          60.2068   88.8808    8.8517 C.ar    1  UNL1        0.0058
     22 C          60.7697   89.8934    9.8044 C.ar    1  UNL1        0.0145
     23 C          60.2859   86.5184    7.7734 C.2     1  UNL1        0.2677
     24 O          58.8296   86.5537    7.4155 O.2     1  UNL1       -0.2681
     25 N          61.1791   85.4704    7.1787 N.am    1  UNL1       -0.1934
     26 O          60.6162   84.4577    6.2259 O.3     1  UNL1       -0.2949
     27 H          62.1349   85.4472    7.4136 H       1  UNL1        0.1825
     28 H          59.6678   84.6208    6.1039 H       1  UNL1        0.2414
@<TRIPOS>BOND
     1     2     1    1
     2     2    15    1
     3    15    17    1
     4    17    18   ar
     5    18    19   ar
     6    19    20   ar
     7    20    23    1
     8    23    24    2
     9    23    25   am
    10    25    26    1
    11    20    21   ar
    12    21    22   ar
    13     2     3    1
    14     3     4    1
    15     4     5    1
    16     5     8    1
    17     8     9   ar
    18     9    10   ar
    19    10    11   ar
    20    11    12    1
    21    11    13   ar
    22    13    14   ar
    23     5     6   am
    24     6     7    2
    25     6     2    1
    26    22    17   ar
    27    14     8   ar
    28    15    16    1
    29    25    27    1
    30    26    28    1
@<TRIPOS>MOLECULE
*****
 28 30 0 0 0
SMALL
GASTEIGER

@<TRIPOS>ATOM
      1 C          61.8117   89.7847   10.2303 C.3     1  UNL1        0.0290
      2 C          62.1433   88.5290   10.9808 C.3     1  UNL1        0.1259
      3 C          62.0759   87.8888    9.6260 C.3     1  UNL1        0.0487
      4 C          62.3654   86.4261    9.7896 C.3     1  UNL1        0.1004
      5 N          62.6117   86.1624   11.2456 N.am    1  UNL1       -0.2573
      6 C          62.4744   87.4621   11.9818 C.2     1  UNL1        0.2451
      7 O          62.6393   87.6601   13.4595 O.2     1  UNL1       -0.2728
      8 C          62.9380   84.8325   11.8579 C.ar    1  UNL1        0.0539
      9 C          62.6193   83.5675   11.1175 C.ar    1  UNL1        0.0158
     10 C          62.9455   82.2376   11.7298 C.ar    1  UNL1        0.0127
     11 C          63.5905   82.1727   13.0825 C.ar    1  UNL1        0.0578
     12 CL         63.9168   80.8428   13.6948 Cl      1  UNL1       -0.0822
     13 C          63.9093   83.4377   13.8228 C.ar    1  UNL1        0.0127
     14 C          63.5830   84.7676   13.2106 C.ar    1  UNL1        0.0158
     15 N          62.1413   89.4318   12.1787 N.pl3   1  UNL1       -0.3285
     16 H          61.3315   89.5129   12.7326 H       1  UNL1        0.1471
     17 C          63.3732   90.2110   12.5326 C.ar    1  UNL1        0.0449
     18 C          63.8873   91.2663   11.5988 C.ar    1  UNL1        0.0145
     19 C          65.1191   92.0455   11.9528 C.ar    1  UNL1        0.0058
     20 C          65.8370   91.7693   13.2406 C.ar    1  UNL1        0.0554
     21 C          65.3230   90.7140   14.1744 C.ar    1  UNL1        0.0058
     22 C          64.0911   89.9349   13.8204 C.ar    1  UNL1        0.0145
     23 C          67.0689   92.5486   13.5945 C.2     1  UNL1        0.2677
     24 O          67.0080   94.0441   13.6927 O.2     1  UNL1       -0.2681
     25 N          68.3618   91.8323   13.8503 N.am    1  UNL1       -0.1934
     26 O          69.5937   92.6115   14.2042 O.3     1  UNL1       -0.2949
     27 H          68.4018   90.8507   13.7858 H       1  UNL1        0.1825
     28 H          69.3827   93.5580   14.2250 H       1  UNL1        0.2414
@<TRIPOS>BOND
     1     2     1    1
     2     2    15    1
     3    15    17    1
     4    17    18   ar
     5    18    19   ar
     6    19    20   ar
     7    20    23    1
     8    23    24    2
     9    23    25   am
    10    25    26    1
    11    20    21   ar
    12    21    22   ar
    13     2     3    1
    14     3     4    1
    15     4     5    1
    16     5     8    1
    17     8     9   ar
    18     9    10   ar
    19    10    11   ar
    20    11    12    1
    21    11    13   ar
    22    13    14   ar
    23     5     6   am
    24     6     7    2
    25     6     2    1
    26    22    17   ar
    27    14     8   ar
    28    15    16    1
    29    25    27    1
    30    26    28    1
