@<TRIPOS>MOLECULE
*****
 29 31 0 0 0
SMALL
GASTEIGER

@<TRIPOS>ATOM
      1 O          59.9485   88.0632   11.6342 O.2     1  UNL1       -0.2732
      2 C          61.2002   88.8336   11.3348 C.2     1  UNL1        0.2430
      3 N          62.4132   88.1209   10.8146 N.am    1  UNL1       -0.2972
      4 H          63.2347   88.6266   10.6180 H       1  UNL1        0.1500
      5 C          61.2389   90.3168   11.5555 C.3     1  UNL1        0.1759
      6 N          62.5450   90.9997   11.8347 N.am    1  UNL1       -0.2931
      7 C          63.3682   90.5885   13.0192 C.2     1  UNL1        0.2462
      8 O          62.8854   89.4944   13.9247 O.2     1  UNL1       -0.2701
      9 H          62.8619   91.7178   11.2404 H       1  UNL1        0.1502
     10 C          64.6743   91.2714   13.2983 C.ar    1  UNL1        0.0534
     11 C          65.1928   92.3136   12.3525 C.ar    1  UNL1        0.0045
     12 C          66.4989   92.9965   12.6316 C.ar    1  UNL1        0.0001
     13 C          67.2863   92.6371   13.8567 C.ar    1  UNL1        0.0000
     14 C          66.7678   91.5948   14.8026 C.ar    1  UNL1        0.0001
     15 C          65.4617   90.9120   14.5234 C.ar    1  UNL1        0.0045
     16 C          62.3745   86.6377   10.5938 C.3     1  UNL1        0.1169
     17 C          62.7308   85.7035   11.7120 C.ar    1  UNL1       -0.0003
     18 C          62.4363   84.2379   11.5875 C.ar    1  UNL1       -0.0015
     19 C          62.7926   83.3037   12.7056 C.ar    1  UNL1        0.0111
     20 C          63.4436   83.8351   13.9482 C.ar    1  UNL1        0.0577
     21 CL         63.7999   82.9009   15.0664 Cl      1  UNL1       -0.0822
     22 C          63.7381   85.3006   14.0727 C.ar    1  UNL1        0.0111
     23 C          63.3817   86.2348   12.9545 C.ar    1  UNL1       -0.0015
     24 C          61.9795   86.0888    9.2549 C.ar    1  UNL1       -0.0003
     25 C          62.9903   85.3706    8.4110 C.ar    1  UNL1       -0.0024
     26 C          62.5953   84.8217    7.0720 C.ar    1  UNL1       -0.0003
     27 C          61.1895   84.9909    6.5771 C.ar    1  UNL1       -0.0000
     28 C          60.1786   85.7091    7.4212 C.ar    1  UNL1       -0.0003
     29 C          60.5736   86.2580    8.7601 C.ar    1  UNL1       -0.0024
@<TRIPOS>BOND
     1     1     2    2
     2     2     5    1
     3     5     6    1
     4     6     7   am
     5     7     8    2
     6     7    10    1
     7    10    11   ar
     8    11    12   ar
     9    12    13   ar
    10    13    14   ar
    11    14    15   ar
    12     2     3   am
    13     3    16    1
    14    16    24    1
    15    24    25   ar
    16    25    26   ar
    17    26    27   ar
    18    27    28   ar
    19    28    29   ar
    20    16    17    1
    21    17    18   ar
    22    18    19   ar
    23    19    20   ar
    24    20    21    1
    25    20    22   ar
    26    22    23   ar
    27    15    10   ar
    28    29    24   ar
    29    23    17   ar
    30     6     9    1
    31     3     4    1
@<TRIPOS>MOLECULE
*****
 29 31 0 0 0
SMALL
GASTEIGER

@<TRIPOS>ATOM
      1 O          62.5127   89.6617   16.0234 O.2     1  UNL1       -0.2732
      2 C          63.4677   88.5217   15.8278 C.2     1  UNL1        0.2430
      3 N          64.5906   88.6447   14.8410 N.am    1  UNL1       -0.2972
      4 H          65.2174   87.8965   14.7127 H       1  UNL1        0.1500
      5 C          63.2997   87.2585   16.6191 C.3     1  UNL1        0.1759
      6 N          62.9168   85.9845   15.9259 N.am    1  UNL1       -0.2931
      7 C          63.9279   85.2476   15.0987 C.2     1  UNL1        0.2462
      8 O          65.3221   85.7845   14.9646 O.2     1  UNL1       -0.2701
      9 H          62.0017   85.6321   16.0140 H       1  UNL1        0.1502
     10 C          63.5450   83.9736   14.4055 C.ar    1  UNL1        0.0534
     11 C          62.4251   83.1339   14.9446 C.ar    1  UNL1        0.0045
     12 C          62.0422   81.8600   14.2514 C.ar    1  UNL1        0.0001
     13 C          62.7792   81.4258   13.0192 C.ar    1  UNL1        0.0000
     14 C          63.8991   82.2656   12.4801 C.ar    1  UNL1        0.0001
     15 C          64.2820   83.5395   13.1733 C.ar    1  UNL1        0.0045
     16 C          64.7586   89.9079   14.0497 C.3     1  UNL1        0.1169
     17 C          65.6871   90.9804   14.5372 C.ar    1  UNL1       -0.0003
     18 C          65.3038   91.8255   15.7158 C.ar    1  UNL1       -0.0015
     19 C          66.2323   92.8980   16.2032 C.ar    1  UNL1        0.0111
     20 C          67.5441   93.1254   15.5121 C.ar    1  UNL1        0.0577
     21 CL         68.4726   94.1979   15.9996 Cl      1  UNL1       -0.0822
     22 C          67.9273   92.2804   14.3336 C.ar    1  UNL1        0.0111
     23 C          66.9988   91.2079   13.8461 C.ar    1  UNL1       -0.0015
     24 C          63.9981   90.0986   12.7709 C.ar    1  UNL1       -0.0003
     25 C          64.1515   91.3697   11.9895 C.ar    1  UNL1       -0.0024
     26 C          63.3910   91.5604   10.7107 C.ar    1  UNL1       -0.0003
     27 C          62.4771   90.4800   10.2134 C.ar    1  UNL1       -0.0000
     28 C          62.3237   89.2088   10.9949 C.ar    1  UNL1       -0.0003
     29 C          63.0842   89.0181   12.2736 C.ar    1  UNL1       -0.0024
@<TRIPOS>BOND
     1     1     2    2
     2     2     5    1
     3     5     6    1
     4     6     7   am
     5     7     8    2
     6     7    10    1
     7    10    11   ar
     8    11    12   ar
     9    12    13   ar
    10    13    14   ar
    11    14    15   ar
    12     2     3   am
    13     3    16    1
    14    16    24    1
    15    24    25   ar
    16    25    26   ar
    17    26    27   ar
    18    27    28   ar
    19    28    29   ar
    20    16    17    1
    21    17    18   ar
    22    18    19   ar
    23    19    20   ar
    24    20    21    1
    25    20    22   ar
    26    22    23   ar
    27    15    10   ar
    28    29    24   ar
    29    23    17   ar
    30     6     9    1
    31     3     4    1
@<TRIPOS>MOLECULE
*****
 29 31 0 0 0
SMALL
GASTEIGER

@<TRIPOS>ATOM
      1 O          62.6905   88.1507   16.4860 O.2     1  UNL1       -0.2732
      2 C          63.7033   87.2463   15.8487 C.2     1  UNL1        0.2430
      3 N          64.4636   87.7056   14.6400 N.am    1  UNL1       -0.2972
      4 H          65.1283   87.1120   14.2216 H       1  UNL1        0.1500
      5 C          63.9559   85.8826   16.4200 C.3     1  UNL1        0.1759
      6 N          63.9703   84.6830   15.5195 N.am    1  UNL1       -0.2931
      7 C          62.6866   84.1603   14.9459 C.2     1  UNL1        0.2462
      8 O          61.3886   84.8372   15.2729 O.2     1  UNL1       -0.2701
      9 H          64.8223   84.2387   15.3049 H       1  UNL1        0.1502
     10 C          62.7010   82.9607   14.0454 C.ar    1  UNL1        0.0534
     11 C          63.4986   82.9858   12.7754 C.ar    1  UNL1        0.0045
     12 C          63.5130   81.7863   11.8749 C.ar    1  UNL1        0.0001
     13 C          62.7297   80.5616   12.2446 C.ar    1  UNL1        0.0000
     14 C          61.9321   80.5365   13.5147 C.ar    1  UNL1        0.0001
     15 C          61.9178   81.7360   14.4151 C.ar    1  UNL1        0.0045
     16 C          64.2110   89.0694   14.0685 C.3     1  UNL1        0.1169
     17 C          63.3902   89.2200   12.8221 C.ar    1  UNL1       -0.0003
     18 C          62.9032   88.0028   12.0931 C.ar    1  UNL1       -0.0015
     19 C          62.0824   88.1535   10.8466 C.ar    1  UNL1        0.0111
     20 C          61.7487   89.5213   10.3292 C.ar    1  UNL1        0.0577
     21 CL         60.9279   89.6720    9.0827 Cl      1  UNL1       -0.0822
     22 C          62.2357   90.7384   11.0582 C.ar    1  UNL1        0.0111
     23 C          63.0565   90.5878   12.3046 C.ar    1  UNL1       -0.0015
     24 C          64.7791   90.2824   14.7436 C.ar    1  UNL1       -0.0003
     25 C          64.0114   90.9590   15.8403 C.ar    1  UNL1       -0.0024
     26 C          64.5796   92.1721   16.5154 C.ar    1  UNL1       -0.0003
     27 C          65.9155   92.7085   16.0938 C.ar    1  UNL1       -0.0000
     28 C          66.6832   92.0317   14.9970 C.ar    1  UNL1       -0.0003
     29 C          66.1150   90.8187   14.3220 C.ar    1  UNL1       -0.0024
@<TRIPOS>BOND
     1     1     2    2
     2     2     5    1
     3     5     6    1
     4     6     7   am
     5     7     8    2
     6     7    10    1
     7    10    11   ar
     8    11    12   ar
     9    12    13   ar
    10    13    14   ar
    11    14    15   ar
    12     2     3   am
    13     3    16    1
    14    16    24    1
    15    24    25   ar
    16    25    26   ar
    17    26    27   ar
    18    27    28   ar
    19    28    29   ar
    20    16    17    1
    21    17    18   ar
    22    18    19   ar
    23    19    20   ar
    24    20    21    1
    25    20    22   ar
    26    22    23   ar
    27    15    10   ar
    28    29    24   ar
    29    23    17   ar
    30     6     9    1
    31     3     4    1
@<TRIPOS>MOLECULE
*****
 29 31 0 0 0
SMALL
GASTEIGER

@<TRIPOS>ATOM
      1 O          60.9078   89.2094   12.2925 O.2     1  UNL1       -0.2732
      2 C          62.2872   89.4819   11.7702 C.2     1  UNL1        0.2430
      3 N          62.8894   88.5784   10.7354 N.am    1  UNL1       -0.2972
      4 H          63.7948   88.7573   10.3926 H       1  UNL1        0.1500
      5 C          63.0645   90.6579   12.2828 C.3     1  UNL1        0.1759
      6 N          64.0029   91.3917   11.3712 N.am    1  UNL1       -0.2931
      7 C          65.0599   92.2873   11.9460 C.2     1  UNL1        0.2462
      8 O          65.1787   92.4492   13.4325 O.2     1  UNL1       -0.2701
      9 H          63.9250   91.2855   10.3955 H       1  UNL1        0.1502
     10 C          65.9983   93.0211   11.0344 C.ar    1  UNL1        0.0534
     11 C          67.1664   92.3038   10.4252 C.ar    1  UNL1        0.0045
     12 C          68.1047   93.0376    9.5136 C.ar    1  UNL1        0.0001
     13 C          67.8749   94.4888    9.2112 C.ar    1  UNL1        0.0000
     14 C          66.7069   95.2061    9.8203 C.ar    1  UNL1        0.0001
     15 C          65.7686   94.4722   10.7319 C.ar    1  UNL1        0.0045
     16 C          62.1122   87.4023   10.2227 C.3     1  UNL1        0.1169
     17 C          62.4531   86.0177   10.6880 C.ar    1  UNL1       -0.0003
     18 C          63.0292   85.0231    9.7240 C.ar    1  UNL1       -0.0015
     19 C          63.3701   83.6385   10.1893 C.ar    1  UNL1        0.0111
     20 C          63.1349   83.2483   11.6185 C.ar    1  UNL1        0.0577
     21 CL         63.4758   81.8637   12.0837 Cl      1  UNL1       -0.0822
     22 C          62.5588   84.2428   12.5823 C.ar    1  UNL1        0.0111
     23 C          62.2179   85.6275   12.1171 C.ar    1  UNL1       -0.0015
     24 C          60.9941   87.6110    9.2449 C.ar    1  UNL1       -0.0003
     25 C          60.2444   86.4315    8.7001 C.ar    1  UNL1       -0.0024
     26 C          59.1262   86.6401    7.7222 C.ar    1  UNL1       -0.0003
     27 C          58.7578   88.0281    7.2891 C.ar    1  UNL1       -0.0000
     28 C          59.5075   89.2076    7.8339 C.ar    1  UNL1       -0.0003
     29 C          60.6256   88.9990    8.8118 C.ar    1  UNL1       -0.0024
@<TRIPOS>BOND
     1     1     2    2
     2     2     5    1
     3     5     6    1
     4     6     7   am
     5     7     8    2
     6     7    10    1
     7    10    11   ar
     8    11    12   ar
     9    12    13   ar
    10    13    14   ar
    11    14    15   ar
    12     2     3   am
    13     3    16    1
    14    16    24    1
    15    24    25   ar
    16    25    26   ar
    17    26    27   ar
    18    27    28   ar
    19    28    29   ar
    20    16    17    1
    21    17    18   ar
    22    18    19   ar
    23    19    20   ar
    24    20    21    1
    25    20    22   ar
    26    22    23   ar
    27    15    10   ar
    28    29    24   ar
    29    23    17   ar
    30     6     9    1
    31     3     4    1
@<TRIPOS>MOLECULE
*****
 29 31 0 0 0
SMALL
GASTEIGER

@<TRIPOS>ATOM
      1 O          63.1262   88.7510   15.7985 O.2     1  UNL1       -0.2732
      2 C          63.7380   87.6704   14.9571 C.2     1  UNL1        0.2430
      3 N          63.9863   87.9068   13.4969 N.am    1  UNL1       -0.2972
      4 H          64.3879   87.1976   12.9447 H       1  UNL1        0.1500
      5 C          64.1016   86.3533   15.5760 C.3     1  UNL1        0.1759
      6 N          64.0544   85.0996   14.7536 N.am    1  UNL1       -0.2931
      7 C          62.7755   84.3241   14.6411 C.2     1  UNL1        0.2462
      8 O          61.5436   84.8021   15.3510 O.2     1  UNL1       -0.2701
      9 H          64.8630   84.7859   14.2877 H       1  UNL1        0.1502
     10 C          62.7283   83.0705   13.8187 C.ar    1  UNL1        0.0534
     11 C          63.3482   83.0457   12.4530 C.ar    1  UNL1        0.0045
     12 C          63.3011   81.7921   11.6307 C.ar    1  UNL1        0.0001
     13 C          62.6340   80.5633   12.1740 C.ar    1  UNL1        0.0000
     14 C          62.0142   80.5881   13.5397 C.ar    1  UNL1        0.0001
     15 C          62.0613   81.8417   14.3620 C.ar    1  UNL1        0.0045
     16 C          63.6228   89.2240   12.8779 C.3     1  UNL1        0.1169
     17 C          64.4381   90.4458   13.1816 C.ar    1  UNL1       -0.0003
     18 C          64.5489   91.5449   12.1667 C.ar    1  UNL1       -0.0015
     19 C          65.3642   92.7668   12.4705 C.ar    1  UNL1        0.0111
     20 C          66.0688   92.8896   13.7890 C.ar    1  UNL1        0.0577
     21 CL         66.8841   94.1115   14.0927 Cl      1  UNL1       -0.0822
     22 C          65.9580   91.7906   14.8038 C.ar    1  UNL1        0.0111
     23 C          65.1427   90.5687   14.5001 C.ar    1  UNL1       -0.0015
     24 C          62.4439   89.3192   11.9553 C.ar    1  UNL1       -0.0003
     25 C          61.1897   90.0051   12.4094 C.ar    1  UNL1       -0.0024
     26 C          60.0108   90.1004   11.4868 C.ar    1  UNL1       -0.0003
     27 C          60.0862   89.5097   10.1101 C.ar    1  UNL1       -0.0000
     28 C          61.3406   88.8237    9.6560 C.ar    1  UNL1       -0.0003
     29 C          62.5194   88.7285   10.5786 C.ar    1  UNL1       -0.0024
@<TRIPOS>BOND
     1     1     2    2
     2     2     5    1
     3     5     6    1
     4     6     7   am
     5     7     8    2
     6     7    10    1
     7    10    11   ar
     8    11    12   ar
     9    12    13   ar
    10    13    14   ar
    11    14    15   ar
    12     2     3   am
    13     3    16    1
    14    16    24    1
    15    24    25   ar
    16    25    26   ar
    17    26    27   ar
    18    27    28   ar
    19    28    29   ar
    20    16    17    1
    21    17    18   ar
    22    18    19   ar
    23    19    20   ar
    24    20    21    1
    25    20    22   ar
    26    22    23   ar
    27    15    10   ar
    28    29    24   ar
    29    23    17   ar
    30     6     9    1
    31     3     4    1
@<TRIPOS>MOLECULE
*****
 29 31 0 0 0
SMALL
GASTEIGER

@<TRIPOS>ATOM
      1 O          62.8289   88.4917    9.6610 O.2     1  UNL1       -0.2732
      2 C          62.0554   88.5877   10.9427 C.2     1  UNL1        0.2430
      3 N          61.7225   87.3443   11.7127 N.am    1  UNL1       -0.2972
      4 H          61.2148   87.4073   12.5539 H       1  UNL1        0.1500
      5 C          61.6149   89.9272   11.4542 C.3     1  UNL1        0.1759
      6 N          62.6263   90.8915   11.9994 N.am    1  UNL1       -0.2931
      7 C          63.6529   90.4228   12.9875 C.2     1  UNL1        0.2462
      8 O          63.6681   88.9898   13.4305 O.2     1  UNL1       -0.2701
      9 H          62.6163   91.8320   11.7087 H       1  UNL1        0.1502
     10 C          64.6643   91.3871   13.5328 C.ar    1  UNL1        0.0534
     11 C          65.0279   91.3499   14.9875 C.ar    1  UNL1        0.0045
     12 C          66.0392   92.3142   15.5327 C.ar    1  UNL1        0.0001
     13 C          66.6870   93.3157   14.6231 C.ar    1  UNL1        0.0000
     14 C          66.3234   93.3529   13.1683 C.ar    1  UNL1        0.0001
     15 C          65.3121   92.3886   12.6232 C.ar    1  UNL1        0.0045
     16 C          62.1630   86.0047   11.2012 C.3     1  UNL1        0.1169
     17 C          62.0066   85.6685    9.7477 C.ar    1  UNL1       -0.0003
     18 C          60.7213   85.9802    9.0399 C.ar    1  UNL1       -0.0015
     19 C          60.5649   85.6440    7.5865 C.ar    1  UNL1        0.0111
     20 C          61.6938   84.9960    6.8408 C.ar    1  UNL1        0.0577
     21 CL         61.5374   84.6598    5.3874 Cl      1  UNL1       -0.0822
     22 C          62.9790   84.6843    7.5487 C.ar    1  UNL1        0.0111
     23 C          63.1354   85.0206    9.0021 C.ar    1  UNL1       -0.0015
     24 C          62.7600   85.0015   12.1430 C.ar    1  UNL1       -0.0003
     25 C          62.5417   83.5353   11.9139 C.ar    1  UNL1       -0.0024
     26 C          63.1387   82.5320   12.8558 C.ar    1  UNL1       -0.0003
     27 C          63.9538   82.9950   14.0268 C.ar    1  UNL1       -0.0000
     28 C          64.1720   84.4613   14.2559 C.ar    1  UNL1       -0.0003
     29 C          63.5751   85.4645   13.3140 C.ar    1  UNL1       -0.0024
@<TRIPOS>BOND
     1     1     2    2
     2     2     5    1
     3     5     6    1
     4     6     7   am
     5     7     8    2
     6     7    10    1
     7    10    11   ar
     8    11    12   ar
     9    12    13   ar
    10    13    14   ar
    11    14    15   ar
    12     2     3   am
    13     3    16    1
    14    16    24    1
    15    24    25   ar
    16    25    26   ar
    17    26    27   ar
    18    27    28   ar
    19    28    29   ar
    20    16    17    1
    21    17    18   ar
    22    18    19   ar
    23    19    20   ar
    24    20    21    1
    25    20    22   ar
    26    22    23   ar
    27    15    10   ar
    28    29    24   ar
    29    23    17   ar
    30     6     9    1
    31     3     4    1
@<TRIPOS>MOLECULE
*****
 29 31 0 0 0
SMALL
GASTEIGER

@<TRIPOS>ATOM
      1 O          65.2594   90.3514   14.0815 O.2     1  UNL1       -0.2732
      2 C          64.2391   90.8265   13.0899 C.2     1  UNL1        0.2430
      3 N          64.5100   92.0473   12.2616 N.am    1  UNL1       -0.2972
      4 H          63.8404   92.3592   11.6108 H       1  UNL1        0.1500
      5 C          62.9480   90.0808   12.9266 C.3     1  UNL1        0.1759
      6 N          62.7542   89.1643   11.7550 N.am    1  UNL1       -0.2931
      7 C          61.3736   88.7245   11.3672 C.2     1  UNL1        0.2462
      8 O          60.1867   89.2010   12.1509 O.2     1  UNL1       -0.2701
      9 H          63.5331   88.8515   11.2406 H       1  UNL1        0.1502
     10 C          61.1798   87.8080   10.1956 C.ar    1  UNL1        0.0534
     11 C          59.8878   87.8276    9.4337 C.ar    1  UNL1        0.0045
     12 C          59.6941   86.9111    8.2621 C.ar    1  UNL1        0.0001
     13 C          60.7923   85.9751    7.8525 C.ar    1  UNL1        0.0000
     14 C          62.0842   85.9554    8.6144 C.ar    1  UNL1        0.0001
     15 C          62.2779   86.8719    9.7859 C.ar    1  UNL1        0.0045
     16 C          65.8013   92.7931   12.4249 C.3     1  UNL1        0.1169
     17 C          66.2711   93.7242   11.3468 C.ar    1  UNL1       -0.0003
     18 C          66.9383   93.1757   10.1204 C.ar    1  UNL1       -0.0015
     19 C          67.4082   94.1068    9.0422 C.ar    1  UNL1        0.0111
     20 C          67.2108   95.5864    9.1905 C.ar    1  UNL1        0.0577
     21 CL         67.6806   96.5175    8.1124 Cl      1  UNL1       -0.0822
     22 C          66.5436   96.1348   10.4169 C.ar    1  UNL1        0.0111
     23 C          66.0737   95.2037   11.4950 C.ar    1  UNL1       -0.0015
     24 C          66.6226   92.6078   13.6663 C.ar    1  UNL1       -0.0003
     25 C          67.9601   91.9335   13.5869 C.ar    1  UNL1       -0.0024
     26 C          68.7815   91.7482   14.8283 C.ar    1  UNL1       -0.0003
     27 C          68.2653   92.2372   16.1490 C.ar    1  UNL1       -0.0000
     28 C          66.9277   92.9115   16.2284 C.ar    1  UNL1       -0.0003
     29 C          66.1064   93.0968   14.9870 C.ar    1  UNL1       -0.0024
@<TRIPOS>BOND
     1     1     2    2
     2     2     5    1
     3     5     6    1
     4     6     7   am
     5     7     8    2
     6     7    10    1
     7    10    11   ar
     8    11    12   ar
     9    12    13   ar
    10    13    14   ar
    11    14    15   ar
    12     2     3   am
    13     3    16    1
    14    16    24    1
    15    24    25   ar
    16    25    26   ar
    17    26    27   ar
    18    27    28   ar
    19    28    29   ar
    20    16    17    1
    21    17    18   ar
    22    18    19   ar
    23    19    20   ar
    24    20    21    1
    25    20    22   ar
    26    22    23   ar
    27    15    10   ar
    28    29    24   ar
    29    23    17   ar
    30     6     9    1
    31     3     4    1
@<TRIPOS>MOLECULE
*****
 29 31 0 0 0
SMALL
GASTEIGER

@<TRIPOS>ATOM
      1 O          65.2458   90.6505   13.6688 O.2     1  UNL1       -0.2732
      2 C          64.2579   91.0292   12.6054 C.2     1  UNL1        0.2430
      3 N          64.5611   92.1608   11.6688 N.am    1  UNL1       -0.2972
      4 H          63.9127   92.4093   10.9709 H       1  UNL1        0.1500
      5 C          62.9669   90.2761   12.4787 C.3     1  UNL1        0.1759
      6 N          62.7649   89.3199   11.3407 N.am    1  UNL1       -0.2931
      7 C          61.4201   88.6946   11.1162 C.2     1  UNL1        0.2462
      8 O          60.2772   89.0254   12.0296 O.2     1  UNL1       -0.2701
      9 H          63.5150   89.1028   10.7411 H       1  UNL1        0.1502
     10 C          61.2181   87.7384    9.9781 C.ar    1  UNL1        0.0534
     11 C          59.9110   87.7131    9.2428 C.ar    1  UNL1        0.0045
     12 C          59.7091   86.7569    8.1049 C.ar    1  UNL1        0.0001
     13 C          60.8143   85.8261    7.7023 C.ar    1  UNL1        0.0000
     14 C          62.1214   85.8514    8.4376 C.ar    1  UNL1        0.0001
     15 C          62.3233   86.8076    9.5755 C.ar    1  UNL1        0.0045
     16 C          65.8522   92.9140   11.7955 C.3     1  UNL1        0.1169
     17 C          66.6937   92.7579   13.0273 C.ar    1  UNL1       -0.0003
     18 C          66.3127   93.4703   14.2912 C.ar    1  UNL1       -0.0015
     19 C          67.1542   93.3142   15.5230 C.ar    1  UNL1        0.0111
     20 C          68.3768   92.4456   15.4910 C.ar    1  UNL1        0.0577
     21 CL         69.2184   92.2895   16.7228 Cl      1  UNL1       -0.0822
     22 C          68.7578   91.7332   14.2271 C.ar    1  UNL1        0.0111
     23 C          67.9162   91.8893   12.9953 C.ar    1  UNL1       -0.0015
     24 C          66.3016   93.8232   10.6904 C.ar    1  UNL1       -0.0003
     25 C          65.7904   95.2317   10.6234 C.ar    1  UNL1       -0.0024
     26 C          66.2399   96.1410    9.5182 C.ar    1  UNL1       -0.0003
     27 C          67.2006   95.6416    8.4801 C.ar    1  UNL1       -0.0000
     28 C          67.7117   94.2330    8.5471 C.ar    1  UNL1       -0.0003
     29 C          67.2623   93.3238    9.6522 C.ar    1  UNL1       -0.0024
@<TRIPOS>BOND
     1     1     2    2
     2     2     5    1
     3     5     6    1
     4     6     7   am
     5     7     8    2
     6     7    10    1
     7    10    11   ar
     8    11    12   ar
     9    12    13   ar
    10    13    14   ar
    11    14    15   ar
    12     2     3   am
    13     3    16    1
    14    16    24    1
    15    24    25   ar
    16    25    26   ar
    17    26    27   ar
    18    27    28   ar
    19    28    29   ar
    20    16    17    1
    21    17    18   ar
    22    18    19   ar
    23    19    20   ar
    24    20    21    1
    25    20    22   ar
    26    22    23   ar
    27    15    10   ar
    28    29    24   ar
    29    23    17   ar
    30     6     9    1
    31     3     4    1
@<TRIPOS>MOLECULE
*****
 29 31 0 0 0
SMALL
GASTEIGER

@<TRIPOS>ATOM
      1 O          65.4824   90.3658   14.2381 O.2     1  UNL1       -0.2732
      2 C          64.4521   90.7438   13.2155 C.2     1  UNL1        0.2430
      3 N          64.6780   91.9304   12.3263 N.am    1  UNL1       -0.2972
      4 H          64.0018   92.1785   11.6552 H       1  UNL1        0.1500
      5 C          63.1959   89.9350   13.0821 C.3     1  UNL1        0.1759
      6 N          63.2729   88.4889   12.6910 N.am    1  UNL1       -0.2931
      7 C          63.5849   87.4479   13.7249 C.2     1  UNL1        0.2462
      8 O          63.8199   87.8530   15.1500 O.2     1  UNL1       -0.2701
      9 H          63.1187   88.2230   11.7557 H       1  UNL1        0.1502
     10 C          63.6619   86.0018   13.3338 C.ar    1  UNL1        0.0534
     11 C          64.4561   85.0406   14.1677 C.ar    1  UNL1        0.0045
     12 C          64.5331   83.5946   13.7765 C.ar    1  UNL1        0.0001
     13 C          63.8158   83.1097   12.5516 C.ar    1  UNL1        0.0000
     14 C          63.0216   84.0709   11.7178 C.ar    1  UNL1        0.0001
     15 C          62.9446   85.5169   12.1089 C.ar    1  UNL1        0.0045
     16 C          65.9343   92.7393   12.4597 C.3     1  UNL1        0.1169
     17 C          66.3421   93.6776   11.3628 C.ar    1  UNL1       -0.0003
     18 C          66.9938   93.1429   10.1220 C.ar    1  UNL1       -0.0015
     19 C          67.4016   94.0813    9.0252 C.ar    1  UNL1        0.0111
     20 C          67.1578   95.5544    9.1691 C.ar    1  UNL1        0.0577
     21 CL         67.5656   96.4927    8.0722 Cl      1  UNL1       -0.0822
     22 C          66.5061   96.0890   10.4098 C.ar    1  UNL1        0.0111
     23 C          66.0983   95.1506   11.5067 C.ar    1  UNL1       -0.0015
     24 C          66.7826   92.6097   13.6899 C.ar    1  UNL1       -0.0003
     25 C          66.2688   93.1017   15.0105 C.ar    1  UNL1       -0.0024
     26 C          67.1171   92.9722   16.2408 C.ar    1  UNL1       -0.0003
     27 C          68.4793   92.3506   16.1505 C.ar    1  UNL1       -0.0000
     28 C          68.9932   91.8587   14.8298 C.ar    1  UNL1       -0.0003
     29 C          68.1448   91.9882   13.5996 C.ar    1  UNL1       -0.0024
@<TRIPOS>BOND
     1     1     2    2
     2     2     5    1
     3     5     6    1
     4     6     7   am
     5     7     8    2
     6     7    10    1
     7    10    11   ar
     8    11    12   ar
     9    12    13   ar
    10    13    14   ar
    11    14    15   ar
    12     2     3   am
    13     3    16    1
    14    16    24    1
    15    24    25   ar
    16    25    26   ar
    17    26    27   ar
    18    27    28   ar
    19    28    29   ar
    20    16    17    1
    21    17    18   ar
    22    18    19   ar
    23    19    20   ar
    24    20    21    1
    25    20    22   ar
    26    22    23   ar
    27    15    10   ar
    28    29    24   ar
    29    23    17   ar
    30     6     9    1
    31     3     4    1
