@<TRIPOS>MOLECULE
*****
 30 32 0 0 0
SMALL
GASTEIGER

@<TRIPOS>ATOM
      1 C          64.2730   89.6911   14.3161 C.3     1  UNL1        0.0378
      2 C          64.7595   90.2986   15.5984 C.3     1  UNL1        0.0075
      3 C          65.4113   91.6495   15.5885 C.3     1  UNL1        0.0219
      4 C          65.5766   92.3930   14.2962 C.3     1  UNL1        0.0950
      5 N          65.0901   91.7855   13.0139 N.am    1  UNL1       -0.2637
      6 C          65.2554   92.5290   11.7216 C.2     1  UNL1        0.3077
      7 O          64.7688   91.9215   10.4394 O.2     1  UNL1       -0.2522
      8 N          65.9072   93.8800   11.7117 N.am    1  UNL1       -0.2681
      9 C          64.4383   90.4346   13.0239 C.3     1  UNL1        0.0989
     10 H          66.2266   94.2787   12.5533 H       1  UNL1        0.1564
     11 C          66.0725   94.6234   10.4194 C.ar    1  UNL1        0.0516
     12 C          67.0612   94.1426    9.3988 C.ar    1  UNL1        0.0156
     13 C          67.2265   94.8859    8.1066 C.ar    1  UNL1        0.0127
     14 C          66.4032   96.1100    7.8348 C.ar    1  UNL1        0.0578
     15 CL         66.5685   96.8534    6.5424 Cl      1  UNL1       -0.0822
     16 C          65.4146   96.5908    8.8553 C.ar    1  UNL1        0.0127
     17 C          65.2492   95.8474   10.1477 C.ar    1  UNL1        0.0156
     18 C          63.8928   88.6057   15.2792 C.ar    1  UNL1       -0.0212
     19 C          64.2705   87.1827   14.9927 C.ar    1  UNL1       -0.0042
     20 C          63.8903   86.0974   15.9557 C.ar    1  UNL1       -0.0003
     21 C          63.1325   86.4351   17.2054 C.ar    1  UNL1       -0.0000
     22 C          62.7548   87.8582   17.4919 C.ar    1  UNL1       -0.0003
     23 C          63.1350   88.9435   16.5289 C.ar    1  UNL1       -0.0042
     24 C          63.6544   88.7067   13.3683 C.3     1  UNL1        0.0153
     25 C          63.1204   89.1724   12.0462 C.3     1  UNL1        0.0854
     26 C          61.4164   85.8895   10.6078 C.3     1  UNL1        0.1107
     27 N          62.3063   86.7871   11.4155 N.am    1  UNL1       -0.3027
     28 C          62.2305   88.2747   11.2385 C.2     1  UNL1        0.2225
     29 O          61.2650   88.8647   10.2538 O.2     1  UNL1       -0.2751
     30 H          62.9401   86.4000   12.0618 H       1  UNL1        0.1495
@<TRIPOS>BOND
     1    26    27    1
     2    27    28   am
     3    28    29    2
     4    28    25    1
     5    25    24    1
     6    24     1    1
     7     1    18    1
     8    18    19   ar
     9    19    20   ar
    10    20    21   ar
    11    21    22   ar
    12    22    23   ar
    13     1     2    1
    14     2     3    1
    15     3     4    1
    16     4     5    1
    17     5     6   am
    18     6     7    2
    19     6     8   am
    20     8    11    1
    21    11    12   ar
    22    12    13   ar
    23    13    14   ar
    24    14    15    1
    25    14    16   ar
    26    16    17   ar
    27     5     9    1
    28     9     1    1
    29    23    18   ar
    30    17    11   ar
    31    27    30    1
    32     8    10    1
@<TRIPOS>MOLECULE
*****
 30 32 0 0 0
SMALL
GASTEIGER

@<TRIPOS>ATOM
      1 C          65.8206   91.7208   13.7990 C.3     1  UNL1        0.0378
      2 C          65.3569   91.4129   15.1918 C.3     1  UNL1        0.0075
      3 C          64.1265   90.5822   15.4062 C.3     1  UNL1        0.0219
      4 C          63.3598   90.0594   14.2277 C.3     1  UNL1        0.0950
      5 N          63.8236   90.3672   12.8348 N.am    1  UNL1       -0.2637
      6 C          63.0569   89.8444   11.6563 C.2     1  UNL1        0.3077
      7 O          63.5207   90.1524   10.2634 O.2     1  UNL1       -0.2522
      8 N          61.8265   89.0137   11.8706 N.am    1  UNL1       -0.2681
      9 C          65.0540   91.1979   12.6204 C.3     1  UNL1        0.0989
     10 H          61.5220   88.8116   12.7848 H       1  UNL1        0.1564
     11 C          61.0599   88.4910   10.6921 C.ar    1  UNL1        0.0516
     12 C          61.0057   87.0154   10.4273 C.ar    1  UNL1        0.0156
     13 C          60.2392   86.4926    9.2488 C.ar    1  UNL1        0.0127
     14 C          59.5267   87.4452    8.3350 C.ar    1  UNL1        0.0578
     15 CL         58.7601   86.9224    7.1564 Cl      1  UNL1       -0.0822
     16 C          59.5808   88.9207    8.5998 C.ar    1  UNL1        0.0127
     17 C          60.3474   89.4435    9.7784 C.ar    1  UNL1        0.0156
     18 C          66.8757   92.4369   14.5891 C.ar    1  UNL1       -0.0212
     19 C          67.8198   91.6592   15.4572 C.ar    1  UNL1       -0.0042
     20 C          68.8748   92.3754   16.2472 C.ar    1  UNL1       -0.0003
     21 C          68.9856   93.8692   16.1691 C.ar    1  UNL1       -0.0000
     22 C          68.0414   94.6469   15.3010 C.ar    1  UNL1       -0.0003
     23 C          66.9864   93.9308   14.5110 C.ar    1  UNL1       -0.0042
     24 C          66.6508   92.2774   12.6805 C.3     1  UNL1        0.0153
     25 C          66.0035   92.6506   11.3799 C.3     1  UNL1        0.0854
     26 C          65.5834   96.2835    9.8387 C.3     1  UNL1        0.1107
     27 N          65.2535   94.9743   10.4922 N.am    1  UNL1       -0.3027
     28 C          66.3334   93.9598   10.7264 C.2     1  UNL1        0.2225
     29 O          67.7431   94.2546   10.3070 O.2     1  UNL1       -0.2751
     30 H          64.3283   94.7808   10.7675 H       1  UNL1        0.1495
@<TRIPOS>BOND
     1    26    27    1
     2    27    28   am
     3    28    29    2
     4    28    25    1
     5    25    24    1
     6    24     1    1
     7     1    18    1
     8    18    19   ar
     9    19    20   ar
    10    20    21   ar
    11    21    22   ar
    12    22    23   ar
    13     1     2    1
    14     2     3    1
    15     3     4    1
    16     4     5    1
    17     5     6   am
    18     6     7    2
    19     6     8   am
    20     8    11    1
    21    11    12   ar
    22    12    13   ar
    23    13    14   ar
    24    14    15    1
    25    14    16   ar
    26    16    17   ar
    27     5     9    1
    28     9     1    1
    29    23    18   ar
    30    17    11   ar
    31    27    30    1
    32     8    10    1
@<TRIPOS>MOLECULE
*****
 30 32 0 0 0
SMALL
GASTEIGER

@<TRIPOS>ATOM
      1 C          65.5246   91.6341   13.3750 C.3     1  UNL1        0.0378
      2 C          65.9852   92.7573   12.4939 C.3     1  UNL1        0.0075
      3 C          65.4053   92.9190   11.1201 C.3     1  UNL1        0.0219
      4 C          64.3647   91.9575   10.6272 C.3     1  UNL1        0.0950
      5 N          63.9041   90.8344   11.5083 N.am    1  UNL1       -0.2637
      6 C          62.8635   89.8729   11.0155 C.2     1  UNL1        0.3077
      7 O          62.4029   88.7497   11.8966 O.2     1  UNL1       -0.2522
      8 N          62.2836   90.0347    9.6416 N.am    1  UNL1       -0.2681
      9 C          64.4840   90.6726   12.8821 C.3     1  UNL1        0.0989
     10 H          62.5859   90.7718    9.0633 H       1  UNL1        0.1564
     11 C          61.2431   89.0732    9.1488 C.ar    1  UNL1        0.0516
     12 C          61.3142   87.6264    9.5387 C.ar    1  UNL1        0.0156
     13 C          60.2738   86.6649    9.0460 C.ar    1  UNL1        0.0127
     14 C          59.1621   87.1500    8.1635 C.ar    1  UNL1        0.0578
     15 CL         58.1216   86.1884    7.6708 Cl      1  UNL1       -0.0822
     16 C          59.0909   88.5967    7.7736 C.ar    1  UNL1        0.0127
     17 C          60.1315   89.5583    8.2663 C.ar    1  UNL1        0.0156
     18 C          66.5259   92.2839   14.2834 C.ar    1  UNL1       -0.0212
     19 C          66.6889   93.7749   14.2757 C.ar    1  UNL1       -0.0042
     20 C          67.6902   94.4246   15.1841 C.ar    1  UNL1       -0.0003
     21 C          68.5286   93.5832   16.1002 C.ar    1  UNL1       -0.0000
     22 C          68.3657   92.0921   16.1078 C.ar    1  UNL1       -0.0003
     23 C          67.3644   91.4425   15.1994 C.ar    1  UNL1       -0.0042
     24 C          65.4117   90.7366   14.5715 C.3     1  UNL1        0.0153
     25 C          64.4500   89.5856   14.5576 C.3     1  UNL1        0.0854
     26 C          62.7306   87.4005   17.3895 C.3     1  UNL1        0.1107
     27 N          63.4749   87.7711   16.1410 N.am    1  UNL1       -0.3027
     28 C          63.7057   89.2150   15.8062 C.2     1  UNL1        0.2225
     29 O          63.1923   90.2882   16.7197 O.2     1  UNL1       -0.2751
     30 H          63.8118   87.0668   15.5413 H       1  UNL1        0.1495
@<TRIPOS>BOND
     1    26    27    1
     2    27    28   am
     3    28    29    2
     4    28    25    1
     5    25    24    1
     6    24     1    1
     7     1    18    1
     8    18    19   ar
     9    19    20   ar
    10    20    21   ar
    11    21    22   ar
    12    22    23   ar
    13     1     2    1
    14     2     3    1
    15     3     4    1
    16     4     5    1
    17     5     6   am
    18     6     7    2
    19     6     8   am
    20     8    11    1
    21    11    12   ar
    22    12    13   ar
    23    13    14   ar
    24    14    15    1
    25    14    16   ar
    26    16    17   ar
    27     5     9    1
    28     9     1    1
    29    23    18   ar
    30    17    11   ar
    31    27    30    1
    32     8    10    1
@<TRIPOS>MOLECULE
*****
 30 32 0 0 0
SMALL
GASTEIGER

@<TRIPOS>ATOM
      1 C          65.7442   91.6532   13.6725 C.3     1  UNL1        0.0378
      2 C          65.7331   90.8083   14.9119 C.3     1  UNL1        0.0075
      3 C          64.8285   89.6149   14.9979 C.3     1  UNL1        0.0219
      4 C          63.9350   89.2664   13.8446 C.3     1  UNL1        0.0950
      5 N          63.9460   90.1113   12.6053 N.am    1  UNL1       -0.2637
      6 C          63.0525   89.7627   11.4519 C.2     1  UNL1        0.3077
      7 O          63.0636   90.6077   10.2126 O.2     1  UNL1       -0.2522
      8 N          62.1479   88.5693   11.5380 N.am    1  UNL1       -0.2681
      9 C          64.8506   91.3047   12.5192 C.3     1  UNL1        0.0989
     10 H          62.1406   88.0147   12.3515 H       1  UNL1        0.1564
     11 C          61.2544   88.2208   10.3847 C.ar    1  UNL1        0.0516
     12 C          60.5368   89.3057    9.6375 C.ar    1  UNL1        0.0156
     13 C          59.6433   88.9574    8.4842 C.ar    1  UNL1        0.0127
     14 C          59.4673   87.5241    8.0780 C.ar    1  UNL1        0.0578
     15 CL         58.5737   87.1758    6.9246 Cl      1  UNL1       -0.0822
     16 C          60.1848   86.4393    8.8252 C.ar    1  UNL1        0.0127
     17 C          61.0783   86.7877    9.9786 C.ar    1  UNL1        0.0156
     18 C          66.7647   92.3833   14.4946 C.ar    1  UNL1       -0.0212
     19 C          66.8446   93.8799   14.4349 C.ar    1  UNL1       -0.0042
     20 C          67.8650   94.6099   15.2569 C.ar    1  UNL1       -0.0003
     21 C          68.8057   93.8432   16.1386 C.ar    1  UNL1       -0.0000
     22 C          68.7258   92.3465   16.1983 C.ar    1  UNL1       -0.0003
     23 C          67.7053   91.6166   15.3763 C.ar    1  UNL1       -0.0042
     24 C          66.1097   92.7517   12.7186 C.3     1  UNL1        0.0153
     25 C          66.2609   92.4554   11.2560 C.3     1  UNL1        0.0854
     26 C          69.2103   92.3401    8.6032 C.3     1  UNL1        0.1107
     27 N          67.8433   92.5120    9.1962 N.am    1  UNL1       -0.3027
     28 C          67.6279   92.2835   10.6630 C.2     1  UNL1        0.2225
     29 O          68.7795   91.8830   11.5367 O.2     1  UNL1       -0.2751
     30 H          67.0874   92.7749    8.6228 H       1  UNL1        0.1495
@<TRIPOS>BOND
     1    26    27    1
     2    27    28   am
     3    28    29    2
     4    28    25    1
     5    25    24    1
     6    24     1    1
     7     1    18    1
     8    18    19   ar
     9    19    20   ar
    10    20    21   ar
    11    21    22   ar
    12    22    23   ar
    13     1     2    1
    14     2     3    1
    15     3     4    1
    16     4     5    1
    17     5     6   am
    18     6     7    2
    19     6     8   am
    20     8    11    1
    21    11    12   ar
    22    12    13   ar
    23    13    14   ar
    24    14    15    1
    25    14    16   ar
    26    16    17   ar
    27     5     9    1
    28     9     1    1
    29    23    18   ar
    30    17    11   ar
    31    27    30    1
    32     8    10    1
@<TRIPOS>MOLECULE
*****
 30 32 0 0 0
SMALL
GASTEIGER

@<TRIPOS>ATOM
      1 C          63.9262   87.9565   14.6645 C.3     1  UNL1        0.0378
      2 C          63.8051   87.7220   16.1410 C.3     1  UNL1        0.0075
      3 C          63.5519   86.3385   16.6623 C.3     1  UNL1        0.0219
      4 C          63.4197   85.1895   15.7070 C.3     1  UNL1        0.0950
      5 N          63.5407   85.4241   14.2305 N.am    1  UNL1       -0.2637
      6 C          63.4085   84.2752   13.2752 C.2     1  UNL1        0.3077
      7 O          63.5296   84.5099   11.7986 O.2     1  UNL1       -0.2522
      8 N          63.1553   82.8917   13.7965 N.am    1  UNL1       -0.2681
      9 C          63.7940   86.8076   13.7091 C.3     1  UNL1        0.0989
     10 H          63.0758   82.7377   14.7656 H       1  UNL1        0.1564
     11 C          63.0231   81.7429   12.8412 C.ar    1  UNL1        0.0516
     12 C          63.3187   81.9414   11.3840 C.ar    1  UNL1        0.0156
     13 C          63.1866   80.7927   10.4287 C.ar    1  UNL1        0.0127
     14 C          62.7588   79.4453   10.9303 C.ar    1  UNL1        0.0578
     15 CL         62.6266   78.2965    9.9749 Cl      1  UNL1       -0.0822
     16 C          62.4631   79.2468   12.3875 C.ar    1  UNL1        0.0127
     17 C          62.5953   80.3956   13.3429 C.ar    1  UNL1        0.0156
     18 C          64.1243   89.3557   15.1676 C.ar    1  UNL1       -0.0212
     19 C          65.1634   90.2378   14.5414 C.ar    1  UNL1       -0.0042
     20 C          65.3615   91.6369   15.0445 C.ar    1  UNL1       -0.0003
     21 C          64.5205   92.1540   16.1739 C.ar    1  UNL1       -0.0000
     22 C          63.4815   91.2719   16.8001 C.ar    1  UNL1       -0.0003
     23 C          63.2834   89.8727   16.2970 C.ar    1  UNL1       -0.0042
     24 C          64.1160   88.6771   13.3626 C.3     1  UNL1        0.0153
     25 C          63.1509   88.4567   12.2357 C.3     1  UNL1        0.0854
     26 C          59.7080   90.2780   11.4747 C.3     1  UNL1        0.1107
     27 N          60.6966   89.2090   11.8354 N.am    1  UNL1       -0.3027
     28 C          62.1623   89.5256   11.8750 C.2     1  UNL1        0.2225
     29 O          62.6394   90.9110   11.5540 O.2     1  UNL1       -0.2751
     30 H          60.3835   88.2997   12.0461 H       1  UNL1        0.1495
@<TRIPOS>BOND
     1    26    27    1
     2    27    28   am
     3    28    29    2
     4    28    25    1
     5    25    24    1
     6    24     1    1
     7     1    18    1
     8    18    19   ar
     9    19    20   ar
    10    20    21   ar
    11    21    22   ar
    12    22    23   ar
    13     1     2    1
    14     2     3    1
    15     3     4    1
    16     4     5    1
    17     5     6   am
    18     6     7    2
    19     6     8   am
    20     8    11    1
    21    11    12   ar
    22    12    13   ar
    23    13    14   ar
    24    14    15    1
    25    14    16   ar
    26    16    17   ar
    27     5     9    1
    28     9     1    1
    29    23    18   ar
    30    17    11   ar
    31    27    30    1
    32     8    10    1
@<TRIPOS>MOLECULE
*****
 30 32 0 0 0
SMALL
GASTEIGER

@<TRIPOS>ATOM
      1 C          63.0766   84.4645   13.4996 C.3     1  UNL1        0.0378
      2 C          63.3756   84.0360   14.9056 C.3     1  UNL1        0.0075
      3 C          63.9786   85.0097   15.8743 C.3     1  UNL1        0.0219
      4 C          64.2825   86.4120   15.4369 C.3     1  UNL1        0.0950
      5 N          63.9835   86.8405   14.0309 N.am    1  UNL1       -0.2637
      6 C          64.2875   88.2428   13.5935 C.2     1  UNL1        0.3077
      7 O          63.9884   88.6713   12.1875 O.2     1  UNL1       -0.2522
      8 N          64.8904   89.2165   14.5622 N.am    1  UNL1       -0.2681
      9 C          63.3806   85.8668   13.0622 C.3     1  UNL1        0.0989
     10 H          65.0867   88.9353   15.4850 H       1  UNL1        0.1564
     11 C          65.1943   90.6187   14.1248 C.ar    1  UNL1        0.0516
     12 C          65.9946   91.5247   15.0131 C.ar    1  UNL1        0.0156
     13 C          66.2985   92.9268   14.5757 C.ar    1  UNL1        0.0127
     14 C          65.8022   93.4233   13.2501 C.ar    1  UNL1        0.0578
     15 CL         66.1062   94.8256   12.8127 Cl      1  UNL1       -0.0822
     16 C          65.0020   92.5174   12.3618 C.ar    1  UNL1        0.0127
     17 C          64.6980   91.1151   12.7992 C.ar    1  UNL1        0.0156
     18 C          62.6129   83.0392   13.4416 C.ar    1  UNL1       -0.0212
     19 C          63.1258   82.1267   12.3672 C.ar    1  UNL1       -0.0042
     20 C          62.6620   80.7014   12.3093 C.ar    1  UNL1       -0.0003
     21 C          61.6854   80.1885   13.3258 C.ar    1  UNL1       -0.0000
     22 C          61.1726   81.1010   14.4002 C.ar    1  UNL1       -0.0003
     23 C          61.6363   82.5263   14.4581 C.ar    1  UNL1       -0.0042
     24 C          62.6166   84.3981   12.0734 C.3     1  UNL1        0.0153
     25 C          62.0226   85.6104   11.4197 C.3     1  UNL1        0.0854
     26 C          60.4497   86.2372    7.8303 C.3     1  UNL1        0.1107
     27 N          60.6035   86.1887    9.3217 N.am    1  UNL1       -0.3027
     28 C          61.8688   85.6589    9.9283 C.2     1  UNL1        0.2225
     29 O          62.9805   85.1775    9.0437 O.2     1  UNL1       -0.2751
     30 H          59.8739   86.5047    9.9023 H       1  UNL1        0.1495
@<TRIPOS>BOND
     1    26    27    1
     2    27    28   am
     3    28    29    2
     4    28    25    1
     5    25    24    1
     6    24     1    1
     7     1    18    1
     8    18    19   ar
     9    19    20   ar
    10    20    21   ar
    11    21    22   ar
    12    22    23   ar
    13     1     2    1
    14     2     3    1
    15     3     4    1
    16     4     5    1
    17     5     6   am
    18     6     7    2
    19     6     8   am
    20     8    11    1
    21    11    12   ar
    22    12    13   ar
    23    13    14   ar
    24    14    15    1
    25    14    16   ar
    26    16    17   ar
    27     5     9    1
    28     9     1    1
    29    23    18   ar
    30    17    11   ar
    31    27    30    1
    32     8    10    1
@<TRIPOS>MOLECULE
*****
 30 32 0 0 0
SMALL
GASTEIGER

@<TRIPOS>ATOM
      1 C          63.3593   83.5251   12.3835 C.3     1  UNL1        0.0378
      2 C          62.4638   83.7813   11.2078 C.3     1  UNL1        0.0075
      3 C          62.0790   85.1862   10.8502 C.3     1  UNL1        0.0219
      4 C          62.5897   86.3351   11.6684 C.3     1  UNL1        0.0950
      5 N          63.4852   86.0789   12.8441 N.am    1  UNL1       -0.2637
      6 C          63.9960   87.2278   13.6623 C.2     1  UNL1        0.3077
      7 O          64.8915   86.9715   14.8380 O.2     1  UNL1       -0.2522
      8 N          63.6111   88.6328   13.3047 N.am    1  UNL1       -0.2681
      9 C          63.8701   84.6739   13.2017 C.3     1  UNL1        0.0989
     10 H          63.0234   88.8009   12.5330 H       1  UNL1        0.1564
     11 C          64.1219   89.7815   14.1229 C.ar    1  UNL1        0.0516
     12 C          65.1996   90.6706   13.5767 C.ar    1  UNL1        0.0156
     13 C          65.7104   91.8193   14.3948 C.ar    1  UNL1        0.0127
     14 C          65.1436   92.0791   15.7591 C.ar    1  UNL1        0.0578
     15 CL         65.6544   93.2279   16.5773 Cl      1  UNL1       -0.0822
     16 C          64.0659   91.1901   16.3052 C.ar    1  UNL1        0.0127
     17 C          63.5551   90.0413   15.4871 C.ar    1  UNL1        0.0156
     18 C          63.1322   82.1175   11.9175 C.ar    1  UNL1       -0.0212
     19 C          63.3877   81.7511   10.4856 C.ar    1  UNL1       -0.0042
     20 C          63.1606   80.3435   10.0197 C.ar    1  UNL1       -0.0003
     21 C          62.6780   79.3023   10.9856 C.ar    1  UNL1       -0.0000
     22 C          62.4225   79.6687   12.4175 C.ar    1  UNL1       -0.0003
     23 C          62.6496   81.0763   12.8835 C.ar    1  UNL1       -0.0042
     24 C          64.1760   82.7800   13.3975 C.3     1  UNL1        0.0153
     25 C          64.3919   83.3639   14.7622 C.3     1  UNL1        0.0854
     26 C          62.2677   85.7196   17.1473 C.3     1  UNL1        0.1107
     27 N          63.4261   85.1494   16.3836 N.am    1  UNL1       -0.3027
     28 C          63.2335   83.9340   15.5259 C.2     1  UNL1        0.2225
     29 O          61.8827   83.2887   15.4318 O.2     1  UNL1       -0.2751
     30 H          64.3127   85.5730   16.4453 H       1  UNL1        0.1495
@<TRIPOS>BOND
     1    26    27    1
     2    27    28   am
     3    28    29    2
     4    28    25    1
     5    25    24    1
     6    24     1    1
     7     1    18    1
     8    18    19   ar
     9    19    20   ar
    10    20    21   ar
    11    21    22   ar
    12    22    23   ar
    13     1     2    1
    14     2     3    1
    15     3     4    1
    16     4     5    1
    17     5     6   am
    18     6     7    2
    19     6     8   am
    20     8    11    1
    21    11    12   ar
    22    12    13   ar
    23    13    14   ar
    24    14    15    1
    25    14    16   ar
    26    16    17   ar
    27     5     9    1
    28     9     1    1
    29    23    18   ar
    30    17    11   ar
    31    27    30    1
    32     8    10    1
@<TRIPOS>MOLECULE
*****
 30 32 0 0 0
SMALL
GASTEIGER

@<TRIPOS>ATOM
      1 C          63.0377   84.2720   13.1927 C.3     1  UNL1        0.0378
      2 C          62.0896   84.2804   12.0305 C.3     1  UNL1        0.0075
      3 C          61.8217   85.5572   11.2903 C.3     1  UNL1        0.0219
      4 C          62.5022   86.8257   11.7123 C.3     1  UNL1        0.0950
      5 N          63.4503   86.8173   12.8745 N.am    1  UNL1       -0.2637
      6 C          64.1308   88.0857   13.2965 C.2     1  UNL1        0.3077
      7 O          65.0790   88.0773   14.4587 O.2     1  UNL1       -0.2522
      8 N          63.8630   89.3626   12.5563 N.am    1  UNL1       -0.2681
      9 C          63.7182   85.5404   13.6147 C.3     1  UNL1        0.0989
     10 H          63.2406   89.3681   11.7934 H       1  UNL1        0.1564
     11 C          64.5434   90.6309   12.9783 C.ar    1  UNL1        0.0516
     12 C          64.9280   90.8338   14.4140 C.ar    1  UNL1        0.0156
     13 C          65.6084   92.1021   14.8361 C.ar    1  UNL1        0.0127
     14 C          65.9043   93.1677   13.8227 C.ar    1  UNL1        0.0578
     15 CL         66.5848   94.4361   14.2448 Cl      1  UNL1       -0.0822
     16 C          65.5197   92.9649   12.3871 C.ar    1  UNL1        0.0127
     17 C          64.8392   91.6965   11.9649 C.ar    1  UNL1        0.0156
     18 C          62.6385   82.8262   13.1719 C.ar    1  UNL1       -0.0212
     19 C          61.7378   82.2813   14.2404 C.ar    1  UNL1       -0.0042
     20 C          61.3386   80.8356   14.2195 C.ar    1  UNL1       -0.0003
     21 C          61.8401   79.9347   13.1301 C.ar    1  UNL1       -0.0000
     22 C          62.7408   80.4796   12.0615 C.ar    1  UNL1       -0.0003
     23 C          63.1400   81.9253   12.0824 C.ar    1  UNL1       -0.0042
     24 C          63.8473   83.7615   14.3477 C.3     1  UNL1        0.0153
     25 C          64.3130   84.7083   15.4138 C.3     1  UNL1        0.0854
     26 C          62.5788   87.6513   17.4341 C.3     1  UNL1        0.1107
     27 N          63.5806   86.8924   16.6152 N.am    1  UNL1       -0.3027
     28 C          63.3112   85.4672   16.2327 C.2     1  UNL1        0.2225
     29 O          62.0400   84.8010   16.6689 O.2     1  UNL1       -0.2751
     30 H          64.4149   87.3296   16.3289 H       1  UNL1        0.1495
@<TRIPOS>BOND
     1    26    27    1
     2    27    28   am
     3    28    29    2
     4    28    25    1
     5    25    24    1
     6    24     1    1
     7     1    18    1
     8    18    19   ar
     9    19    20   ar
    10    20    21   ar
    11    21    22   ar
    12    22    23   ar
    13     1     2    1
    14     2     3    1
    15     3     4    1
    16     4     5    1
    17     5     6   am
    18     6     7    2
    19     6     8   am
    20     8    11    1
    21    11    12   ar
    22    12    13   ar
    23    13    14   ar
    24    14    15    1
    25    14    16   ar
    26    16    17   ar
    27     5     9    1
    28     9     1    1
    29    23    18   ar
    30    17    11   ar
    31    27    30    1
    32     8    10    1
@<TRIPOS>MOLECULE
*****
 30 32 0 0 0
SMALL
GASTEIGER

@<TRIPOS>ATOM
      1 C          61.8844   88.6394   10.2740 C.3     1  UNL1        0.0378
      2 C          61.6308   89.7005    9.2446 C.3     1  UNL1        0.0075
      3 C          62.3375   91.0203    9.3379 C.3     1  UNL1        0.0219
      4 C          63.2979   91.2790   10.4608 C.3     1  UNL1        0.0950
      5 N          63.5515   90.2180   11.4903 N.am    1  UNL1       -0.2637
      6 C          64.5118   90.4767   12.6131 C.2     1  UNL1        0.3077
      7 O          64.7654   89.4156   13.6426 O.2     1  UNL1       -0.2522
      8 N          65.2185   91.7965   12.7065 N.am    1  UNL1       -0.2681
      9 C          62.8448   88.8982   11.3969 C.3     1  UNL1        0.0989
     10 H          65.0521   92.4929   12.0308 H       1  UNL1        0.1564
     11 C          66.1788   92.0552   13.8294 C.ar    1  UNL1        0.0516
     12 C          67.6566   91.9600   13.5893 C.ar    1  UNL1        0.0156
     13 C          68.6169   92.2187   14.7121 C.ar    1  UNL1        0.0127
     14 C          68.0997   92.5724   16.0750 C.ar    1  UNL1        0.0578
     15 CL         69.0601   92.8311   17.1979 Cl      1  UNL1       -0.0822
     16 C          66.6221   92.6676   16.3150 C.ar    1  UNL1        0.0127
     17 C          65.6616   92.4089   15.1922 C.ar    1  UNL1        0.0156
     18 C          60.8925   87.9261    9.4037 C.ar    1  UNL1       -0.0212
     19 C          59.5995   88.5929    9.0382 C.ar    1  UNL1       -0.0042
     20 C          58.6077   87.8795    8.1680 C.ar    1  UNL1       -0.0003
     21 C          58.9088   86.4995    7.6632 C.ar    1  UNL1       -0.0000
     22 C          60.2018   85.8328    8.0287 C.ar    1  UNL1       -0.0003
     23 C          61.1937   86.5461    8.8990 C.ar    1  UNL1       -0.0042
     24 C          61.7936   87.3306   11.0013 C.3     1  UNL1        0.0153
     25 C          62.8979   86.9070   11.9238 C.3     1  UNL1        0.0854
     26 C          63.0984   83.8255   14.4166 C.3     1  UNL1        0.1107
     27 N          63.0461   85.2354   13.9071 N.am    1  UNL1       -0.3027
     28 C          62.9502   85.4971   12.4332 C.2     1  UNL1        0.2225
     29 O          62.9065   84.3491   11.4688 O.2     1  UNL1       -0.2751
     30 H          63.0747   85.9889   14.5400 H       1  UNL1        0.1495
@<TRIPOS>BOND
     1    26    27    1
     2    27    28   am
     3    28    29    2
     4    28    25    1
     5    25    24    1
     6    24     1    1
     7     1    18    1
     8    18    19   ar
     9    19    20   ar
    10    20    21   ar
    11    21    22   ar
    12    22    23   ar
    13     1     2    1
    14     2     3    1
    15     3     4    1
    16     4     5    1
    17     5     6   am
    18     6     7    2
    19     6     8   am
    20     8    11    1
    21    11    12   ar
    22    12    13   ar
    23    13    14   ar
    24    14    15    1
    25    14    16   ar
    26    16    17   ar
    27     5     9    1
    28     9     1    1
    29    23    18   ar
    30    17    11   ar
    31    27    30    1
    32     8    10    1
