@<TRIPOS>MOLECULE
*****
 21 23 0 0 0
SMALL
GASTEIGER

@<TRIPOS>ATOM
      1 N          66.4518   93.8349   11.6509 N.3     1  UNL1       -0.3187
      2 C          65.9028   92.7222   12.4939 C.3     1  UNL1        0.0765
      3 C          66.4672   92.4680   13.8602 C.3     1  UNL1        0.0418
      4 C          65.9182   91.3554   14.7033 C.3     1  UNL1        0.0973
      5 N          64.8050   90.4970   14.1801 N.pl3   1  UNL1       -0.2870
      6 C          64.2406   90.7512   12.8137 C.ar    1  UNL1        0.0488
      7 C          63.1273   89.8929   12.2904 C.ar    1  UNL1        0.0146
      8 C          62.5630   90.1471   10.9241 C.ar    1  UNL1        0.0013
      9 C          63.1119   91.2598   10.0811 C.ar    1  UNL1       -0.0002
     10 C          64.2252   92.1181   10.6043 C.ar    1  UNL1       -0.0018
     11 C          64.7895   91.8639   11.9706 C.ar    1  UNL1        0.0055
     12 H          67.1971   94.3107   12.1592 H       1  UNL1        0.1191
     13 H          65.7076   94.4992   11.4381 H       1  UNL1        0.1191
     14 C          64.2560   89.3844   15.0231 C.ar    1  UNL1        0.0525
     15 C          63.4295   89.6990   16.2346 C.ar    1  UNL1        0.0157
     16 C          62.8806   88.5864   17.0777 C.ar    1  UNL1        0.0135
     17 C          63.1582   87.1591   16.7092 C.ar    1  UNL1        0.0683
     18 CL         62.6093   86.0465   17.5523 Cl      1  UNL1       -0.0814
     19 C          63.9848   86.8444   15.4977 C.ar    1  UNL1        0.0694
     20 CL         64.2624   85.4172   15.1293 Cl      1  UNL1       -0.0813
     21 C          64.5337   87.9570   14.6546 C.ar    1  UNL1        0.0271
@<TRIPOS>BOND
     1     2     1    1
     2     2     3    1
     3     3     4    1
     4     4     5    1
     5     5    14    1
     6    14    15   ar
     7    15    16   ar
     8    16    17   ar
     9    17    18    1
    10    17    19   ar
    11    19    20    1
    12    19    21   ar
    13     5     6    1
    14     6     7   ar
    15     7     8   ar
    16     8     9   ar
    17     9    10   ar
    18    10    11   ar
    19    11     2    1
    20    21    14   ar
    21    11     6   ar
    22     1    12    1
    23     1    13    1
@<TRIPOS>MOLECULE
*****
 21 23 0 0 0
SMALL
GASTEIGER

@<TRIPOS>ATOM
      1 N          65.2152   93.3168   10.4416 N.3     1  UNL1       -0.3187
      2 C          64.8864   92.3134   11.5069 C.3     1  UNL1        0.0765
      3 C          63.9033   91.2159   11.2259 C.3     1  UNL1        0.0418
      4 C          63.5745   90.2125   12.2912 C.3     1  UNL1        0.0973
      5 N          64.2288   90.3065   13.6377 N.pl3   1  UNL1       -0.2870
      6 C          65.2120   91.4040   13.9188 C.ar    1  UNL1        0.0488
      7 C          65.8664   91.4980   15.2652 C.ar    1  UNL1        0.0146
      8 C          66.8495   92.5954   15.5463 C.ar    1  UNL1        0.0013
      9 C          67.1783   93.5988   14.4809 C.ar    1  UNL1       -0.0002
     10 C          66.5240   93.5048   13.1345 C.ar    1  UNL1       -0.0018
     11 C          65.5408   92.4074   12.8534 C.ar    1  UNL1        0.0055
     12 H          64.6836   93.1032    9.5976 H       1  UNL1        0.1191
     13 H          66.2131   93.2776   10.2339 H       1  UNL1        0.1191
     14 C          63.9000   89.3031   14.7031 C.ar    1  UNL1        0.0525
     15 C          63.1717   89.7351   15.9411 C.ar    1  UNL1        0.0157
     16 C          62.8429   88.7317   17.0065 C.ar    1  UNL1        0.0135
     17 C          63.2424   87.2962   16.8338 C.ar    1  UNL1        0.0683
     18 CL         62.9136   86.2928   17.8992 Cl      1  UNL1       -0.0814
     19 C          63.9708   86.8642   15.5957 C.ar    1  UNL1        0.0694
     20 CL         64.3704   85.4287   15.4230 Cl      1  UNL1       -0.0813
     21 C          64.2996   87.8676   14.5303 C.ar    1  UNL1        0.0271
@<TRIPOS>BOND
     1     2     1    1
     2     2     3    1
     3     3     4    1
     4     4     5    1
     5     5    14    1
     6    14    15   ar
     7    15    16   ar
     8    16    17   ar
     9    17    18    1
    10    17    19   ar
    11    19    20    1
    12    19    21   ar
    13     5     6    1
    14     6     7   ar
    15     7     8   ar
    16     8     9   ar
    17     9    10   ar
    18    10    11   ar
    19    11     2    1
    20    21    14   ar
    21    11     6   ar
    22     1    12    1
    23     1    13    1
@<TRIPOS>MOLECULE
*****
 21 23 0 0 0
SMALL
GASTEIGER

@<TRIPOS>ATOM
      1 N          63.1075   89.5823   15.4930 N.3     1  UNL1       -0.3187
      2 C          63.8176   90.4280   14.4778 C.3     1  UNL1        0.0765
      3 C          65.0141   91.2377   14.8810 C.3     1  UNL1        0.0418
      4 C          65.7241   92.0834   13.8658 C.3     1  UNL1        0.0973
      5 N          65.2376   92.1193   12.4474 N.pl3   1  UNL1       -0.2870
      6 C          64.0411   91.3096   12.0441 C.ar    1  UNL1        0.0488
      7 C          63.5546   91.3455   10.6257 C.ar    1  UNL1        0.0146
      8 C          62.3581   90.5358   10.2224 C.ar    1  UNL1        0.0013
      9 C          61.6480   89.6901   11.2377 C.ar    1  UNL1       -0.0002
     10 C          62.1345   89.6541   12.6561 C.ar    1  UNL1       -0.0018
     11 C          63.3310   90.4639   13.0593 C.ar    1  UNL1        0.0055
     12 H          63.5696   89.6770   16.3974 H       1  UNL1        0.1191
     13 H          63.1322   88.6058   15.1992 H       1  UNL1        0.1191
     14 C          65.9477   92.9650   11.4322 C.ar    1  UNL1        0.0525
     15 C          65.6292   94.4264   11.3186 C.ar    1  UNL1        0.0157
     16 C          66.3392   95.2721   10.3034 C.ar    1  UNL1        0.0135
     17 C          67.3677   94.6564    9.4017 C.ar    1  UNL1        0.0683
     18 CL         68.0777   95.5021    8.3865 Cl      1  UNL1       -0.0814
     19 C          67.6862   93.1950    9.5152 C.ar    1  UNL1        0.0694
     20 CL         68.7147   92.5793    8.6135 Cl      1  UNL1       -0.0813
     21 C          66.9762   92.3493   10.5304 C.ar    1  UNL1        0.0271
@<TRIPOS>BOND
     1     2     1    1
     2     2     3    1
     3     3     4    1
     4     4     5    1
     5     5    14    1
     6    14    15   ar
     7    15    16   ar
     8    16    17   ar
     9    17    18    1
    10    17    19   ar
    11    19    20    1
    12    19    21   ar
    13     5     6    1
    14     6     7   ar
    15     7     8   ar
    16     8     9   ar
    17     9    10   ar
    18    10    11   ar
    19    11     2    1
    20    21    14   ar
    21    11     6   ar
    22     1    12    1
    23     1    13    1
@<TRIPOS>MOLECULE
*****
 21 23 0 0 0
SMALL
GASTEIGER

@<TRIPOS>ATOM
      1 N          64.0586   89.9905   13.8457 N.3     1  UNL1       -0.3187
      2 C          63.8639   88.5232   13.6028 C.3     1  UNL1        0.0765
      3 C          64.3726   87.5241   14.5993 C.3     1  UNL1        0.0418
      4 C          64.1779   86.0567   14.3564 C.3     1  UNL1        0.0973
      5 N          63.4744   85.5885   13.1172 N.pl3   1  UNL1       -0.2870
      6 C          62.9656   86.5876   12.1207 C.ar    1  UNL1        0.0488
      7 C          62.2621   86.1194   10.8814 C.ar    1  UNL1        0.0146
      8 C          61.7534   87.1185    9.8850 C.ar    1  UNL1        0.0013
      9 C          61.9481   88.5858   10.1278 C.ar    1  UNL1       -0.0002
     10 C          62.6516   89.0541   11.3671 C.ar    1  UNL1       -0.0018
     11 C          63.1603   88.0550   12.3635 C.ar    1  UNL1        0.0055
     12 H          64.5515   90.1266   14.7282 H       1  UNL1        0.1191
     13 H          63.1498   90.4515   13.8892 H       1  UNL1        0.1191
     14 C          63.2797   84.1211   12.8743 C.ar    1  UNL1        0.0525
     15 C          64.0677   83.4271   11.8032 C.ar    1  UNL1        0.0157
     16 C          63.8730   81.9598   11.5604 C.ar    1  UNL1        0.0135
     17 C          62.8902   81.1865   12.3887 C.ar    1  UNL1        0.0683
     18 CL         62.6955   79.7191   12.1459 Cl      1  UNL1       -0.0814
     19 C          62.1021   81.8805   13.4599 C.ar    1  UNL1        0.0694
     20 CL         61.1194   81.1071   14.2881 Cl      1  UNL1       -0.0813
     21 C          62.2969   83.3478   13.7027 C.ar    1  UNL1        0.0271
@<TRIPOS>BOND
     1     2     1    1
     2     2     3    1
     3     3     4    1
     4     4     5    1
     5     5    14    1
     6    14    15   ar
     7    15    16   ar
     8    16    17   ar
     9    17    18    1
    10    17    19   ar
    11    19    20    1
    12    19    21   ar
    13     5     6    1
    14     6     7   ar
    15     7     8   ar
    16     8     9   ar
    17     9    10   ar
    18    10    11   ar
    19    11     2    1
    20    21    14   ar
    21    11     6   ar
    22     1    12    1
    23     1    13    1
@<TRIPOS>MOLECULE
*****
 21 23 0 0 0
SMALL
GASTEIGER

@<TRIPOS>ATOM
      1 N          65.9590   92.1727   15.8117 N.3     1  UNL1       -0.3187
      2 C          65.0596   91.5908   14.7618 C.3     1  UNL1        0.0765
      3 C          64.0315   90.5658   15.1391 C.3     1  UNL1        0.0418
      4 C          63.1321   89.9838   14.0892 C.3     1  UNL1        0.0973
      5 N          63.2607   90.4269   12.6619 N.pl3   1  UNL1       -0.2870
      6 C          64.2887   91.4519   12.2845 C.ar    1  UNL1        0.0488
      7 C          64.4173   91.8950   10.8573 C.ar    1  UNL1        0.0146
      8 C          65.4454   92.9200   10.4799 C.ar    1  UNL1        0.0013
      9 C          66.3448   93.5019   11.5298 C.ar    1  UNL1       -0.0002
     10 C          66.2163   93.0589   12.9571 C.ar    1  UNL1       -0.0018
     11 C          65.1882   92.0339   13.3344 C.ar    1  UNL1        0.0055
     12 H          65.7348   91.7612   16.7176 H       1  UNL1        0.1191
     13 H          65.8232   93.1827   15.8540 H       1  UNL1        0.1191
     14 C          62.3612   89.8449   11.6120 C.ar    1  UNL1        0.0525
     15 C          61.0963   90.5552   11.2304 C.ar    1  UNL1        0.0157
     16 C          60.1969   89.9732   10.1805 C.ar    1  UNL1        0.0135
     17 C          60.5623   88.6811    9.5122 C.ar    1  UNL1        0.0683
     18 CL         59.6628   88.0991    8.4623 Cl      1  UNL1       -0.0814
     19 C          61.8272   87.9707    9.8938 C.ar    1  UNL1        0.0694
     20 CL         62.1925   86.6785    9.2255 Cl      1  UNL1       -0.0813
     21 C          62.7266   88.5527   10.9437 C.ar    1  UNL1        0.0271
@<TRIPOS>BOND
     1     2     1    1
     2     2     3    1
     3     3     4    1
     4     4     5    1
     5     5    14    1
     6    14    15   ar
     7    15    16   ar
     8    16    17   ar
     9    17    18    1
    10    17    19   ar
    11    19    20    1
    12    19    21   ar
    13     5     6    1
    14     6     7   ar
    15     7     8   ar
    16     8     9   ar
    17     9    10   ar
    18    10    11   ar
    19    11     2    1
    20    21    14   ar
    21    11     6   ar
    22     1    12    1
    23     1    13    1
@<TRIPOS>MOLECULE
*****
 21 23 0 0 0
SMALL
GASTEIGER

@<TRIPOS>ATOM
      1 N          59.7599   89.8111    8.0351 N.3     1  UNL1       -0.3187
      2 C          60.4291   88.6598    8.7255 C.3     1  UNL1        0.0765
      3 C          60.1823   87.2571    8.2550 C.3     1  UNL1        0.0418
      4 C          60.8515   86.1058    8.9455 C.3     1  UNL1        0.0973
      5 N          61.7674   86.3572   10.1064 N.pl3   1  UNL1       -0.2870
      6 C          62.0142   87.7600   10.5769 C.ar    1  UNL1        0.0488
      7 C          62.9302   88.0114   11.7379 C.ar    1  UNL1        0.0146
      8 C          63.1770   89.4141   12.2084 C.ar    1  UNL1        0.0013
      9 C          62.5078   90.5654   11.5179 C.ar    1  UNL1       -0.0002
     10 C          61.5918   90.3140   10.3570 C.ar    1  UNL1       -0.0018
     11 C          61.3451   88.9113    9.8865 C.ar    1  UNL1        0.0055
     12 H          59.1778   89.4598    7.2747 H       1  UNL1        0.1191
     13 H          60.4689   90.4400    7.6579 H       1  UNL1        0.1191
     14 C          62.4366   85.2059   10.7968 C.ar    1  UNL1        0.0525
     15 C          63.3628   84.3080   10.0313 C.ar    1  UNL1        0.0157
     16 C          64.0320   83.1567   10.7218 C.ar    1  UNL1        0.0135
     17 C          63.7750   82.9033   12.1776 C.ar    1  UNL1        0.0683
     18 CL         64.4442   81.7520   12.8681 Cl      1  UNL1       -0.0814
     19 C          62.8488   83.8012   12.9432 C.ar    1  UNL1        0.0694
     20 CL         62.5918   83.5477   14.3991 Cl      1  UNL1       -0.0813
     21 C          62.1796   84.9525   12.2528 C.ar    1  UNL1        0.0271
@<TRIPOS>BOND
     1     2     1    1
     2     2     3    1
     3     3     4    1
     4     4     5    1
     5     5    14    1
     6    14    15   ar
     7    15    16   ar
     8    16    17   ar
     9    17    18    1
    10    17    19   ar
    11    19    20    1
    12    19    21   ar
    13     5     6    1
    14     6     7   ar
    15     7     8   ar
    16     8     9   ar
    17     9    10   ar
    18    10    11   ar
    19    11     2    1
    20    21    14   ar
    21    11     6   ar
    22     1    12    1
    23     1    13    1
@<TRIPOS>MOLECULE
*****
 21 23 0 0 0
SMALL
GASTEIGER

@<TRIPOS>ATOM
      1 N          62.8054   90.9016   11.6749 N.3     1  UNL1       -0.3187
      2 C          62.8182   89.4145   11.8709 C.3     1  UNL1        0.0765
      3 C          63.6179   88.8121   12.9878 C.3     1  UNL1        0.0418
      4 C          63.6307   87.3250   13.1838 C.3     1  UNL1        0.0973
      5 N          62.8439   86.4404   12.2628 N.pl3   1  UNL1       -0.2870
      6 C          62.0442   87.0428   11.1458 C.ar    1  UNL1        0.0488
      7 C          61.2573   86.1581   10.2248 C.ar    1  UNL1        0.0146
      8 C          60.4577   86.7605    9.1079 C.ar    1  UNL1        0.0013
      9 C          60.4448   88.2476    8.9119 C.ar    1  UNL1       -0.0002
     10 C          61.2317   89.1323    9.8329 C.ar    1  UNL1       -0.0018
     11 C          62.0313   88.5299   10.9498 C.ar    1  UNL1        0.0055
     12 H          63.3897   91.3432   12.3848 H       1  UNL1        0.1191
     13 H          61.8494   91.2473   11.7582 H       1  UNL1        0.1191
     14 C          62.8567   84.9533   12.4588 C.ar    1  UNL1        0.0525
     15 C          62.5095   84.3700   13.7964 C.ar    1  UNL1        0.0157
     16 C          62.5223   82.8830   13.9924 C.ar    1  UNL1        0.0135
     17 C          62.8824   81.9791   12.8507 C.ar    1  UNL1        0.0683
     18 CL         62.8952   80.4920   13.0467 Cl      1  UNL1       -0.0814
     19 C          63.2296   82.5623   11.5131 C.ar    1  UNL1        0.0694
     20 CL         63.5897   81.6585   10.3714 Cl      1  UNL1       -0.0813
     21 C          63.2168   84.0494   11.3171 C.ar    1  UNL1        0.0271
@<TRIPOS>BOND
     1     2     1    1
     2     2     3    1
     3     3     4    1
     4     4     5    1
     5     5    14    1
     6    14    15   ar
     7    15    16   ar
     8    16    17   ar
     9    17    18    1
    10    17    19   ar
    11    19    20    1
    12    19    21   ar
    13     5     6    1
    14     6     7   ar
    15     7     8   ar
    16     8     9   ar
    17     9    10   ar
    18    10    11   ar
    19    11     2    1
    20    21    14   ar
    21    11     6   ar
    22     1    12    1
    23     1    13    1
@<TRIPOS>MOLECULE
*****
 21 23 0 0 0
SMALL
GASTEIGER

@<TRIPOS>ATOM
      1 N          66.6593   93.5908   12.8296 N.3     1  UNL1       -0.3187
      2 C          65.6013   92.6877   12.2683 C.3     1  UNL1        0.0765
      3 C          65.2536   92.7552   10.8107 C.3     1  UNL1        0.0418
      4 C          64.1956   91.8521   10.2495 C.3     1  UNL1        0.0973
      5 N          63.4853   90.8815   11.1458 N.pl3   1  UNL1       -0.2870
      6 C          63.8330   90.8140   12.6034 C.ar    1  UNL1        0.0488
      7 C          63.1227   89.8434   13.4997 C.ar    1  UNL1        0.0146
      8 C          63.4704   89.7759   14.9572 C.ar    1  UNL1        0.0013
      9 C          64.5284   90.6790   15.5185 C.ar    1  UNL1       -0.0002
     10 C          65.2387   91.6496   14.6222 C.ar    1  UNL1       -0.0018
     11 C          64.8910   91.7171   13.1647 C.ar    1  UNL1        0.0055
     12 H          67.0333   94.1798   12.0855 H       1  UNL1        0.1191
     13 H          67.4108   93.0277   13.2277 H       1  UNL1        0.1191
     14 C          62.4273   89.9784   10.5845 C.ar    1  UNL1        0.0525
     15 C          61.0110   90.4601   10.4747 C.ar    1  UNL1        0.0157
     16 C          59.9530   89.5569    9.9135 C.ar    1  UNL1        0.0135
     17 C          60.3113   88.1721    9.4619 C.ar    1  UNL1        0.0683
     18 CL         59.2533   87.2690    8.9007 Cl      1  UNL1       -0.0814
     19 C          61.7277   87.6904    9.5717 C.ar    1  UNL1        0.0694
     20 CL         62.0859   86.3056    9.1202 Cl      1  UNL1       -0.0813
     21 C          62.7856   88.5935   10.1329 C.ar    1  UNL1        0.0271
@<TRIPOS>BOND
     1     2     1    1
     2     2     3    1
     3     3     4    1
     4     4     5    1
     5     5    14    1
     6    14    15   ar
     7    15    16   ar
     8    16    17   ar
     9    17    18    1
    10    17    19   ar
    11    19    20    1
    12    19    21   ar
    13     5     6    1
    14     6     7   ar
    15     7     8   ar
    16     8     9   ar
    17     9    10   ar
    18    10    11   ar
    19    11     2    1
    20    21    14   ar
    21    11     6   ar
    22     1    12    1
    23     1    13    1
@<TRIPOS>MOLECULE
*****
 21 23 0 0 0
SMALL
GASTEIGER

@<TRIPOS>ATOM
      1 N          65.0175   85.5536   15.6728 N.3     1  UNL1       -0.3187
      2 C          64.2103   85.7640   14.4262 C.3     1  UNL1        0.0765
      3 C          63.6261   84.5866   13.7034 C.3     1  UNL1        0.0418
      4 C          62.8189   84.7970   12.4567 C.3     1  UNL1        0.0973
      5 N          62.5958   86.1847   11.9329 N.pl3   1  UNL1       -0.2870
      6 C          63.1801   87.3621   12.6557 C.ar    1  UNL1        0.0488
      7 C          62.9570   88.7499   12.1318 C.ar    1  UNL1        0.0146
      8 C          63.5413   89.9272   12.8546 C.ar    1  UNL1        0.0013
      9 C          64.3485   89.7168   14.1013 C.ar    1  UNL1       -0.0002
     10 C          64.5715   88.3291   14.6251 C.ar    1  UNL1       -0.0018
     11 C          63.9873   87.1518   13.9023 C.ar    1  UNL1        0.0055
     12 H          65.0668   84.5564   15.8818 H       1  UNL1        0.1191
     13 H          64.5750   86.0426   16.4510 H       1  UNL1        0.1191
     14 C          61.7886   86.3951   10.6862 C.ar    1  UNL1        0.0525
     15 C          60.6121   87.3253   10.7026 C.ar    1  UNL1        0.0157
     16 C          59.8048   87.5357    9.4560 C.ar    1  UNL1        0.0135
     17 C          60.1741   86.8158    8.1929 C.ar    1  UNL1        0.0683
     18 CL         59.3669   87.0261    6.9463 Cl      1  UNL1       -0.0814
     19 C          61.3508   85.8855    8.1765 C.ar    1  UNL1        0.0694
     20 CL         61.7201   85.1656    6.9135 Cl      1  UNL1       -0.0813
     21 C          62.1580   85.6751    9.4231 C.ar    1  UNL1        0.0271
@<TRIPOS>BOND
     1     2     1    1
     2     2     3    1
     3     3     4    1
     4     4     5    1
     5     5    14    1
     6    14    15   ar
     7    15    16   ar
     8    16    17   ar
     9    17    18    1
    10    17    19   ar
    11    19    20    1
    12    19    21   ar
    13     5     6    1
    14     6     7   ar
    15     7     8   ar
    16     8     9   ar
    17     9    10   ar
    18    10    11   ar
    19    11     2    1
    20    21    14   ar
    21    11     6   ar
    22     1    12    1
    23     1    13    1
