@<TRIPOS>MOLECULE
*****
 27 30 0 0 0
SMALL
GASTEIGER

@<TRIPOS>ATOM
      1 C          63.0231   90.4597   12.2009 C.ar    1  UNL1        0.0866
      2 C          63.4395   90.3636   10.7631 C.ar    1  UNL1        0.0106
      3 C          62.4807   89.8339    9.7384 C.ar    1  UNL1        0.0372
      4 C          61.1054   89.4003   10.1516 C.ar    1  UNL1        0.1391
      5 C          60.6890   89.4964   11.5894 C.ar    1  UNL1        0.0372
      6 C          61.6478   90.0261   12.6140 C.ar    1  UNL1        0.0106
      7 O          63.9836   92.1253   17.0282 O.2     1  UNL1       -0.2376
      8 C          64.4622   91.8222   15.6393 C.2     1  UNL1        0.3788
      9 N          63.5034   91.2925   14.6146 N.am    1  UNL1        0.0364
     10 C          63.9820   90.9894   13.2257 C.2     1  UNL1        0.3688
     11 N          65.4193   91.2160   12.8615 N.2     1  UNL1       -0.0400
     12 C          66.3782   91.7457   13.8863 C.2     1  UNL1        0.1818
     13 C          67.8155   91.9722   13.5221 C.3     1  UNL1        0.1000
     14 C          68.7743   92.5019   14.5468 C.2     1  UNL1       -0.0174
     15 C          68.2957   92.8051   15.9357 C.2     1  UNL1       -0.0038
     16 C          66.8584   92.5785   16.2999 C.2     1  UNL1        0.0101
     17 C          65.8996   92.0488   15.2752 C.2     1  UNL1        0.1209
     18 O          60.1465   88.8706    9.1268 O.3     1  UNL1       -0.4706
     19 C          59.8960   87.3951    9.0261 C.3     1  UNL1        0.2342
     20 C          61.0318   86.4288    9.1878 C.ar    1  UNL1        0.0488
     21 C          61.7662   85.9257    7.9804 C.ar    1  UNL1        0.0039
     22 C          62.9020   84.9594    8.1422 C.ar    1  UNL1        0.0296
     23 C          63.3035   84.4962    9.5112 C.ar    1  UNL1        0.1424
     24 F          64.4393   83.5298    9.6729 F       1  UNL1       -0.2041
     25 C          62.5692   84.9993   10.7185 C.ar    1  UNL1        0.0590
     26 C          61.4333   85.9657   10.5568 C.ar    1  UNL1        0.1418
     27 F          60.6990   86.4688   11.7641 F       1  UNL1       -0.2043
@<TRIPOS>BOND
     1     7     8    2
     2     8     9    1
     3     9    10    2
     4    10     1    1
     5     1     2   ar
     6     2     3   ar
     7     3     4   ar
     8     4    18    1
     9    18    19    1
    10    19    20    1
    11    20    21   ar
    12    21    22   ar
    13    22    23   ar
    14    23    24    1
    15    23    25   ar
    16    25    26   ar
    17    26    27    1
    18     4     5   ar
    19     5     6   ar
    20    10    11    1
    21    11    12    2
    22    12    13    1
    23    13    14    1
    24    14    15    2
    25    15    16    1
    26    16    17    2
    27    17     8    1
    28     6     1   ar
    29    17    12    1
    30    26    20   ar
@<TRIPOS>MOLECULE
*****
 27 30 0 0 0
SMALL
GASTEIGER

@<TRIPOS>ATOM
      1 C          63.3816   86.7971   12.8253 C.ar    1  UNL1        0.0866
      2 C          64.0940   87.3537   14.0222 C.ar    1  UNL1        0.0106
      3 C          64.1958   88.8383   14.2110 C.ar    1  UNL1        0.0372
      4 C          63.5853   89.7662   13.2029 C.ar    1  UNL1        0.1391
      5 C          62.8730   89.2095   12.0059 C.ar    1  UNL1        0.0372
      6 C          62.7712   87.7250   11.8171 C.ar    1  UNL1        0.0106
      7 O          64.4433   82.5295   10.0574 O.2     1  UNL1       -0.2376
      8 C          63.8106   83.1787   11.2525 C.2     1  UNL1        0.3788
      9 N          63.9125   84.6633   11.4414 N.am    1  UNL1        0.0364
     10 C          63.2798   85.3124   12.6364 C.2     1  UNL1        0.3688
     11 N          62.5452   84.4771   13.6427 N.2     1  UNL1       -0.0400
     12 C          62.4433   82.9924   13.4538 C.2     1  UNL1        0.1818
     13 C          61.7087   82.1571   14.4600 C.3     1  UNL1        0.1000
     14 C          61.6069   80.6725   14.2712 C.2     1  UNL1       -0.0174
     15 C          62.2396   80.0234   13.0761 C.2     1  UNL1       -0.0038
     16 C          62.9742   80.8587   12.0699 C.2     1  UNL1        0.0101
     17 C          63.0760   82.3433   12.2587 C.2     1  UNL1        0.1209
     18 O          63.6872   91.2508   13.3917 O.3     1  UNL1       -0.4706
     19 C          64.9241   91.9791   12.9561 C.3     1  UNL1        0.2342
     20 C          66.0765   92.1332   13.9037 C.ar    1  UNL1        0.0488
     21 C          65.8214   92.3535   15.3654 C.ar    1  UNL1        0.0039
     22 C          66.9739   92.5076   16.3130 C.ar    1  UNL1        0.0296
     23 C          68.3815   92.4415   15.7991 C.ar    1  UNL1        0.1424
     24 F          69.5340   92.5957   16.7468 F       1  UNL1       -0.2041
     25 C          68.6367   92.2213   14.3374 C.ar    1  UNL1        0.0590
     26 C          67.4842   92.0671   13.3897 C.ar    1  UNL1        0.1418
     27 F          67.7393   91.8469   11.9281 F       1  UNL1       -0.2043
@<TRIPOS>BOND
     1     7     8    2
     2     8     9    1
     3     9    10    2
     4    10     1    1
     5     1     2   ar
     6     2     3   ar
     7     3     4   ar
     8     4    18    1
     9    18    19    1
    10    19    20    1
    11    20    21   ar
    12    21    22   ar
    13    22    23   ar
    14    23    24    1
    15    23    25   ar
    16    25    26   ar
    17    26    27    1
    18     4     5   ar
    19     5     6   ar
    20    10    11    1
    21    11    12    2
    22    12    13    1
    23    13    14    1
    24    14    15    2
    25    15    16    1
    26    16    17    2
    27    17     8    1
    28     6     1   ar
    29    17    12    1
    30    26    20   ar
@<TRIPOS>MOLECULE
*****
 27 30 0 0 0
SMALL
GASTEIGER

@<TRIPOS>ATOM
      1 C          63.5112   87.3231   13.1478 C.ar    1  UNL1        0.0866
      2 C          62.9459   88.1034   11.9983 C.ar    1  UNL1        0.0106
      3 C          63.1024   89.5946   11.9551 C.ar    1  UNL1        0.0372
      4 C          63.8241   90.3054   13.0613 C.ar    1  UNL1        0.1391
      5 C          64.3894   89.5250   14.2109 C.ar    1  UNL1        0.0372
      6 C          64.2329   88.0339   14.2541 C.ar    1  UNL1        0.0106
      7 O          62.7496   82.9551   15.8572 O.2     1  UNL1       -0.2376
      8 C          62.9739   83.6479   14.5458 C.2     1  UNL1        0.3788
      9 N          63.1304   85.1390   14.5025 N.am    1  UNL1        0.0364
     10 C          63.3547   85.8318   13.1911 C.2     1  UNL1        0.3688
     11 N          63.4226   85.0335   11.9231 N.2     1  UNL1       -0.0400
     12 C          63.2662   83.5422   11.9664 C.2     1  UNL1        0.1818
     13 C          63.3341   82.7438   10.6984 C.3     1  UNL1        0.1000
     14 C          63.1777   81.2527   10.7417 C.2     1  UNL1       -0.0174
     15 C          62.9533   80.5599   12.0531 C.2     1  UNL1       -0.0038
     16 C          62.8854   81.3583   13.3211 C.2     1  UNL1        0.0101
     17 C          63.0418   82.8494   13.2778 C.2     1  UNL1        0.1209
     18 O          63.9805   91.7966   13.0181 O.3     1  UNL1       -0.4706
     19 C          65.3186   92.4018   12.7127 C.3     1  UNL1        0.2342
     20 C          66.3982   92.3990   13.7541 C.ar    1  UNL1        0.0488
     21 C          66.0715   92.7559   15.1740 C.ar    1  UNL1        0.0039
     22 C          67.1511   92.7532   16.2154 C.ar    1  UNL1        0.0296
     23 C          68.5573   92.3935   15.8370 C.ar    1  UNL1        0.1424
     24 F          69.6369   92.3908   16.8785 F       1  UNL1       -0.2041
     25 C          68.8840   92.0367   14.4172 C.ar    1  UNL1        0.0590
     26 C          67.8044   92.0394   13.3757 C.ar    1  UNL1        0.1418
     27 F          68.1311   91.6826   11.9559 F       1  UNL1       -0.2043
@<TRIPOS>BOND
     1     7     8    2
     2     8     9    1
     3     9    10    2
     4    10     1    1
     5     1     2   ar
     6     2     3   ar
     7     3     4   ar
     8     4    18    1
     9    18    19    1
    10    19    20    1
    11    20    21   ar
    12    21    22   ar
    13    22    23   ar
    14    23    24    1
    15    23    25   ar
    16    25    26   ar
    17    26    27    1
    18     4     5   ar
    19     5     6   ar
    20    10    11    1
    21    11    12    2
    22    12    13    1
    23    13    14    1
    24    14    15    2
    25    15    16    1
    26    16    17    2
    27    17     8    1
    28     6     1   ar
    29    17    12    1
    30    26    20   ar
@<TRIPOS>MOLECULE
*****
 27 30 0 0 0
SMALL
GASTEIGER

@<TRIPOS>ATOM
      1 C          63.4129   90.7312   12.5881 C.ar    1  UNL1        0.0866
      2 C          63.4650   91.1431   11.1467 C.ar    1  UNL1        0.0106
      3 C          62.4338   90.6343   10.1836 C.ar    1  UNL1        0.0372
      4 C          61.3505   89.7137   10.6618 C.ar    1  UNL1        0.1391
      5 C          61.2983   89.3018   12.1032 C.ar    1  UNL1        0.0372
      6 C          62.3295   89.8105   13.0663 C.ar    1  UNL1        0.0106
      7 O          64.6891   92.4436   17.3251 O.2     1  UNL1       -0.2376
      8 C          65.0822   92.0961   15.9198 C.2     1  UNL1        0.3788
      9 N          64.0511   91.5874   14.9566 N.am    1  UNL1        0.0364
     10 C          64.4441   91.2400   13.5513 C.2     1  UNL1        0.3688
     11 N          65.8684   91.4013   13.1093 N.2     1  UNL1       -0.0400
     12 C          66.8996   91.9101   14.0725 C.2     1  UNL1        0.1818
     13 C          68.3239   92.0714   13.6304 C.3     1  UNL1        0.1000
     14 C          69.3550   92.5802   14.5937 C.2     1  UNL1       -0.0174
     15 C          68.9619   92.9276   15.9989 C.2     1  UNL1       -0.0038
     16 C          67.5377   92.7663   16.4410 C.2     1  UNL1        0.0101
     17 C          66.5065   92.2575   15.4778 C.2     1  UNL1        0.1209
     18 O          60.3192   89.2049    9.6986 O.3     1  UNL1       -0.4706
     19 C          59.9610   87.7484    9.6834 C.3     1  UNL1        0.2342
     20 C          60.7271   86.7967    8.8132 C.ar    1  UNL1        0.0488
     21 C          62.1596   86.4809    9.1269 C.ar    1  UNL1        0.0039
     22 C          62.9258   85.5292    8.2568 C.ar    1  UNL1        0.0296
     23 C          62.2595   84.8932    7.0729 C.ar    1  UNL1        0.1424
     24 F          63.0257   83.9414    6.2027 F       1  UNL1       -0.2041
     25 C          60.8271   85.2089    6.7592 C.ar    1  UNL1        0.0590
     26 C          60.0608   86.1606    7.6294 C.ar    1  UNL1        0.1418
     27 F          58.6284   86.4763    7.3157 F       1  UNL1       -0.2043
@<TRIPOS>BOND
     1     7     8    2
     2     8     9    1
     3     9    10    2
     4    10     1    1
     5     1     2   ar
     6     2     3   ar
     7     3     4   ar
     8     4    18    1
     9    18    19    1
    10    19    20    1
    11    20    21   ar
    12    21    22   ar
    13    22    23   ar
    14    23    24    1
    15    23    25   ar
    16    25    26   ar
    17    26    27    1
    18     4     5   ar
    19     5     6   ar
    20    10    11    1
    21    11    12    2
    22    12    13    1
    23    13    14    1
    24    14    15    2
    25    15    16    1
    26    16    17    2
    27    17     8    1
    28     6     1   ar
    29    17    12    1
    30    26    20   ar
@<TRIPOS>MOLECULE
*****
 27 30 0 0 0
SMALL
GASTEIGER

@<TRIPOS>ATOM
      1 C          63.7948   88.3073   13.5542 C.ar    1  UNL1        0.0866
      2 C          64.6766   89.0574   14.5081 C.ar    1  UNL1        0.0106
      3 C          65.0110   90.4961   14.2469 C.ar    1  UNL1        0.0372
      4 C          64.4637   91.1847   13.0319 C.ar    1  UNL1        0.1391
      5 C          63.5819   90.4346   12.0780 C.ar    1  UNL1        0.0372
      6 C          63.2475   88.9959   12.3392 C.ar    1  UNL1        0.0106
      7 O          62.7628   84.4616   16.8927 O.2     1  UNL1       -0.2376
      8 C          62.9443   84.9457   15.4846 C.2     1  UNL1        0.3788
      9 N          63.2788   86.3844   15.2234 N.am    1  UNL1        0.0364
     10 C          63.4603   86.8685   13.8154 C.2     1  UNL1        0.3688
     11 N          63.3074   85.9140   12.6685 N.2     1  UNL1       -0.0400
     12 C          62.9729   84.4752   12.9296 C.2     1  UNL1        0.1818
     13 C          62.8200   83.5207   11.7827 C.3     1  UNL1        0.1000
     14 C          62.4856   82.0820   12.0439 C.2     1  UNL1       -0.0174
     15 C          62.3040   81.5978   13.4520 C.2     1  UNL1       -0.0038
     16 C          62.4569   82.5524   14.5989 C.2     1  UNL1        0.0101
     17 C          62.7914   83.9911   14.3377 C.2     1  UNL1        0.1209
     18 O          64.7982   92.6235   12.7708 O.3     1  UNL1       -0.4706
     19 C          66.2220   93.0313   12.5334 C.3     1  UNL1        0.2342
     20 C          66.5629   93.9283   11.3805 C.ar    1  UNL1        0.0488
     21 C          66.2670   95.3967   11.4596 C.ar    1  UNL1        0.0039
     22 C          66.6079   96.2937   10.3067 C.ar    1  UNL1        0.0296
     23 C          67.2447   95.7222    9.0746 C.ar    1  UNL1        0.1424
     24 F          67.5856   96.6193    7.9217 F       1  UNL1       -0.2041
     25 C          67.5406   94.2539    8.9955 C.ar    1  UNL1        0.0590
     26 C          67.1997   93.3568   10.1484 C.ar    1  UNL1        0.1418
     27 F          67.4956   91.8885   10.0692 F       1  UNL1       -0.2043
@<TRIPOS>BOND
     1     7     8    2
     2     8     9    1
     3     9    10    2
     4    10     1    1
     5     1     2   ar
     6     2     3   ar
     7     3     4   ar
     8     4    18    1
     9    18    19    1
    10    19    20    1
    11    20    21   ar
    12    21    22   ar
    13    22    23   ar
    14    23    24    1
    15    23    25   ar
    16    25    26   ar
    17    26    27    1
    18     4     5   ar
    19     5     6   ar
    20    10    11    1
    21    11    12    2
    22    12    13    1
    23    13    14    1
    24    14    15    2
    25    15    16    1
    26    16    17    2
    27    17     8    1
    28     6     1   ar
    29    17    12    1
    30    26    20   ar
@<TRIPOS>MOLECULE
*****
 27 30 0 0 0
SMALL
GASTEIGER

@<TRIPOS>ATOM
      1 C          63.6807   87.5352   13.4305 C.ar    1  UNL1        0.0866
      2 C          64.4280   88.1546   14.5741 C.ar    1  UNL1        0.0106
      3 C          64.6514   89.6375   14.6087 C.ar    1  UNL1        0.0372
      4 C          64.1276   90.5009   13.4996 C.ar    1  UNL1        0.1391
      5 C          63.3804   89.8815   12.3559 C.ar    1  UNL1        0.0372
      6 C          63.1569   88.3987   12.3214 C.ar    1  UNL1        0.0106
      7 O          62.6323   83.0838   15.8974 O.2     1  UNL1       -0.2376
      8 C          62.9330   83.8266   14.6294 C.2     1  UNL1        0.3788
      9 N          63.1565   85.3095   14.6639 N.am    1  UNL1        0.0364
     10 C          63.4572   86.0523   13.3960 C.2     1  UNL1        0.3688
     11 N          63.5345   85.3124   12.0935 N.2     1  UNL1       -0.0400
     12 C          63.3110   83.8295   12.0589 C.2     1  UNL1        0.1818
     13 C          63.3883   83.0895   10.7565 C.3     1  UNL1        0.1000
     14 C          63.1649   81.6067   10.7220 C.2     1  UNL1       -0.0174
     15 C          62.8641   80.8638   11.9899 C.2     1  UNL1       -0.0038
     16 C          62.7868   81.6038   13.2924 C.2     1  UNL1        0.0101
     17 C          63.0103   83.0866   13.3269 C.2     1  UNL1        0.1209
     18 O          64.3511   91.9838   13.5341 O.3     1  UNL1       -0.4706
     19 C          65.7428   92.5350   13.4389 C.3     1  UNL1        0.2342
     20 C          66.3720   92.7549   12.0951 C.ar    1  UNL1        0.0488
     21 C          65.6804   93.6086   11.0738 C.ar    1  UNL1        0.0039
     22 C          66.3096   93.8285    9.7300 C.ar    1  UNL1        0.0296
     23 C          67.6304   93.1948    9.4075 C.ar    1  UNL1        0.1424
     24 F          68.2596   93.4148    8.0637 F       1  UNL1       -0.2041
     25 C          68.3220   92.3412   10.4288 C.ar    1  UNL1        0.0590
     26 C          67.6928   92.1212   11.7726 C.ar    1  UNL1        0.1418
     27 F          68.3844   91.2676   12.7939 F       1  UNL1       -0.2043
@<TRIPOS>BOND
     1     7     8    2
     2     8     9    1
     3     9    10    2
     4    10     1    1
     5     1     2   ar
     6     2     3   ar
     7     3     4   ar
     8     4    18    1
     9    18    19    1
    10    19    20    1
    11    20    21   ar
    12    21    22   ar
    13    22    23   ar
    14    23    24    1
    15    23    25   ar
    16    25    26   ar
    17    26    27    1
    18     4     5   ar
    19     5     6   ar
    20    10    11    1
    21    11    12    2
    22    12    13    1
    23    13    14    1
    24    14    15    2
    25    15    16    1
    26    16    17    2
    27    17     8    1
    28     6     1   ar
    29    17    12    1
    30    26    20   ar
@<TRIPOS>MOLECULE
*****
 27 30 0 0 0
SMALL
GASTEIGER

@<TRIPOS>ATOM
      1 C          63.2804   89.6444   12.2364 C.ar    1  UNL1        0.0866
      2 C          63.8883   89.0928   13.4918 C.ar    1  UNL1        0.0106
      3 C          64.6854   89.9869   14.3947 C.ar    1  UNL1        0.0372
      4 C          64.8745   91.4326   14.0421 C.ar    1  UNL1        0.1391
      5 C          64.2666   91.9841   12.7867 C.ar    1  UNL1        0.0372
      6 C          63.4695   91.0900   11.8838 C.ar    1  UNL1        0.0106
      7 O          61.8098   84.8788   10.7778 O.2     1  UNL1       -0.2376
      8 C          61.7480   86.3675   10.6042 C.2     1  UNL1        0.3788
      9 N          62.5450   87.2616   11.5071 N.am    1  UNL1        0.0364
     10 C          62.4832   88.7502   11.3335 C.2     1  UNL1        0.3688
     11 N          61.6244   89.3448   10.2570 N.2     1  UNL1       -0.0400
     12 C          60.8272   88.4506    9.3541 C.2     1  UNL1        0.1818
     13 C          59.9683   89.0451    8.2776 C.3     1  UNL1        0.1000
     14 C          59.1713   88.1510    7.3747 C.2     1  UNL1       -0.0174
     15 C          59.2331   86.6624    7.5484 C.2     1  UNL1       -0.0038
     16 C          60.0920   86.0679    8.6248 C.2     1  UNL1        0.0101
     17 C          60.8890   86.9620    9.5277 C.2     1  UNL1        0.1209
     18 O          65.6716   92.3267   14.9450 O.3     1  UNL1       -0.4706
     19 C          66.5416   93.3997   14.3604 C.3     1  UNL1        0.2342
     20 C          66.8181   93.4208   12.8863 C.ar    1  UNL1        0.0488
     21 C          66.2495   94.5150   12.0321 C.ar    1  UNL1        0.0039
     22 C          66.5259   94.5361   10.5580 C.ar    1  UNL1        0.0296
     23 C          67.3710   93.4630    9.9380 C.ar    1  UNL1        0.1424
     24 F          67.6474   93.4841    8.4638 F       1  UNL1       -0.2041
     25 C          67.9396   92.3689   10.7920 C.ar    1  UNL1        0.0590
     26 C          67.6631   92.3477   12.2663 C.ar    1  UNL1        0.1418
     27 F          68.2317   91.2536   13.1203 F       1  UNL1       -0.2043
@<TRIPOS>BOND
     1     7     8    2
     2     8     9    1
     3     9    10    2
     4    10     1    1
     5     1     2   ar
     6     2     3   ar
     7     3     4   ar
     8     4    18    1
     9    18    19    1
    10    19    20    1
    11    20    21   ar
    12    21    22   ar
    13    22    23   ar
    14    23    24    1
    15    23    25   ar
    16    25    26   ar
    17    26    27    1
    18     4     5   ar
    19     5     6   ar
    20    10    11    1
    21    11    12    2
    22    12    13    1
    23    13    14    1
    24    14    15    2
    25    15    16    1
    26    16    17    2
    27    17     8    1
    28     6     1   ar
    29    17    12    1
    30    26    20   ar
@<TRIPOS>MOLECULE
*****
 27 30 0 0 0
SMALL
GASTEIGER

@<TRIPOS>ATOM
      1 C          63.4658   87.2227   13.0997 C.ar    1  UNL1        0.0866
      2 C          64.1287   87.6224   14.3845 C.ar    1  UNL1        0.0106
      3 C          64.3062   89.0743   14.7167 C.ar    1  UNL1        0.0372
      4 C          63.8208   90.1265   13.7641 C.ar    1  UNL1        0.1391
      5 C          63.1579   89.7267   12.4794 C.ar    1  UNL1        0.0372
      6 C          62.9804   88.2748   12.1472 C.ar    1  UNL1        0.0106
      7 O          63.6257   83.3448    9.6448 O.2     1  UNL1       -0.2376
      8 C          63.3682   83.8318   11.0399 C.2     1  UNL1        0.3788
      9 N          63.5457   85.2837   11.3722 N.am    1  UNL1        0.0364
     10 C          63.2882   85.7707   12.7674 C.2     1  UNL1        0.3688
     11 N          62.8532   84.8058   13.8303 N.2     1  UNL1       -0.0400
     12 C          62.6756   83.3539   13.4980 C.2     1  UNL1        0.1818
     13 C          62.2406   82.3890   14.5608 C.3     1  UNL1        0.1000
     14 C          62.0630   80.9371   14.2285 C.2     1  UNL1       -0.0174
     15 C          62.3205   80.4501   12.8334 C.2     1  UNL1       -0.0038
     16 C          62.7556   81.4150   11.7705 C.2     1  UNL1        0.0101
     17 C          62.9331   82.8669   12.1028 C.2     1  UNL1        0.1209
     18 O          63.9984   91.5785   14.0964 O.3     1  UNL1       -0.4706
     19 C          65.3638   92.1974   14.0478 C.3     1  UNL1        0.2342
     20 C          66.0985   92.2917   12.7435 C.ar    1  UNL1        0.0488
     21 C          65.3811   92.7553   11.5103 C.ar    1  UNL1        0.0039
     22 C          66.1157   92.8495   10.2060 C.ar    1  UNL1        0.0296
     23 C          67.5678   92.4801   10.1347 C.ar    1  UNL1        0.1424
     24 F          68.3025   92.5744    8.8303 F       1  UNL1       -0.2041
     25 C          68.2852   92.0166   11.3677 C.ar    1  UNL1        0.0590
     26 C          67.5505   91.9223   12.6721 C.ar    1  UNL1        0.1418
     27 F          68.2679   91.4587   13.9052 F       1  UNL1       -0.2043
@<TRIPOS>BOND
     1     7     8    2
     2     8     9    1
     3     9    10    2
     4    10     1    1
     5     1     2   ar
     6     2     3   ar
     7     3     4   ar
     8     4    18    1
     9    18    19    1
    10    19    20    1
    11    20    21   ar
    12    21    22   ar
    13    22    23   ar
    14    23    24    1
    15    23    25   ar
    16    25    26   ar
    17    26    27    1
    18     4     5   ar
    19     5     6   ar
    20    10    11    1
    21    11    12    2
    22    12    13    1
    23    13    14    1
    24    14    15    2
    25    15    16    1
    26    16    17    2
    27    17     8    1
    28     6     1   ar
    29    17    12    1
    30    26    20   ar
@<TRIPOS>MOLECULE
*****
 27 30 0 0 0
SMALL
GASTEIGER

@<TRIPOS>ATOM
      1 C          63.8797   88.6825   13.2411 C.ar    1  UNL1        0.0866
      2 C          64.6694   88.9925   14.4781 C.ar    1  UNL1        0.0106
      3 C          65.0753   90.4058   14.7742 C.ar    1  UNL1        0.0372
      4 C          64.6916   91.5091   13.8333 C.ar    1  UNL1        0.1391
      5 C          63.9019   91.1992   12.5963 C.ar    1  UNL1        0.0372
      6 C          63.4959   89.7859   12.3002 C.ar    1  UNL1        0.0106
      7 O          61.4298   85.2453   10.2106 O.2     1  UNL1       -0.2376
      8 C          62.2487   85.5506   11.4297 C.2     1  UNL1        0.3788
      9 N          62.6547   86.9639   11.7259 N.am    1  UNL1        0.0364
     10 C          63.4737   87.2692   12.9450 C.2     1  UNL1        0.3688
     11 N          63.8866   86.1612   13.8679 N.2     1  UNL1       -0.0400
     12 C          63.4805   84.7478   13.5717 C.2     1  UNL1        0.1818
     13 C          63.8934   83.6398   14.4947 C.3     1  UNL1        0.1000
     14 C          63.4874   82.2266   14.1985 C.2     1  UNL1       -0.0174
     15 C          62.6685   81.9213   12.9794 C.2     1  UNL1       -0.0038
     16 C          62.2556   83.0293   12.0565 C.2     1  UNL1        0.0101
     17 C          62.6616   84.4425   12.3527 C.2     1  UNL1        0.1209
     18 O          65.0976   92.9225   14.1294 O.3     1  UNL1       -0.4706
     19 C          66.4413   93.4244   13.6907 C.3     1  UNL1        0.2342
     20 C          66.7463   93.5718   12.2295 C.ar    1  UNL1        0.0488
     21 C          67.2773   92.4036   11.4526 C.ar    1  UNL1        0.0039
     22 C          67.5824   92.5509    9.9914 C.ar    1  UNL1        0.0296
     23 C          67.3564   93.8664    9.3069 C.ar    1  UNL1        0.1424
     24 F          67.6615   94.0137    7.8456 F       1  UNL1       -0.2041
     25 C          66.8255   95.0345   10.0837 C.ar    1  UNL1        0.0590
     26 C          66.5204   94.8873   11.5450 C.ar    1  UNL1        0.1418
     27 F          65.9894   96.0554   12.3218 F       1  UNL1       -0.2043
@<TRIPOS>BOND
     1     7     8    2
     2     8     9    1
     3     9    10    2
     4    10     1    1
     5     1     2   ar
     6     2     3   ar
     7     3     4   ar
     8     4    18    1
     9    18    19    1
    10    19    20    1
    11    20    21   ar
    12    21    22   ar
    13    22    23   ar
    14    23    24    1
    15    23    25   ar
    16    25    26   ar
    17    26    27    1
    18     4     5   ar
    19     5     6   ar
    20    10    11    1
    21    11    12    2
    22    12    13    1
    23    13    14    1
    24    14    15    2
    25    15    16    1
    26    16    17    2
    27    17     8    1
    28     6     1   ar
    29    17    12    1
    30    26    20   ar
