@<TRIPOS>MOLECULE
*****
 34 37 0 0 0
SMALL
GASTEIGER

@<TRIPOS>ATOM
      1 C          61.2920   88.2525   10.0315 C.ar    1  UNL1        0.0951
      2 C          60.3980   88.1267    8.8336 C.ar    1  UNL1        0.1454
      3 F          59.4010   89.2042    8.5253 F       1  UNL1       -0.2040
      4 C          60.5010   86.9234    7.9440 C.ar    1  UNL1        0.0312
      5 C          61.4979   85.8459    8.2523 C.ar    1  UNL1        0.0204
      6 C          62.3919   85.9717    9.4502 C.ar    1  UNL1        0.0924
      7 C          62.2889   87.1750   10.3398 C.ar    1  UNL1        0.1598
      8 F          63.1829   87.3009   11.5377 F       1  UNL1       -0.2026
      9 O          59.8771   89.8080   11.5574 O.2     1  UNL1       -0.2864
     10 C          61.1890   89.4559   10.9212 C.2     1  UNL1        0.2015
     11 C          62.3979   90.3069   11.1745 C.ar    1  UNL1        0.0612
     12 C          63.1227   91.1347   10.1550 C.ar    1  UNL1        0.1037
     13 N          64.2670   91.8190   10.8422 N.ar    1  UNL1       -0.2269
     14 C          64.2494   91.4142   12.2865 C.ar    1  UNL1        0.1407
     15 N          65.1360   91.7757   13.4411 N.ar    1  UNL1       -0.3367
     16 C          64.8674   91.2027   14.8010 C.ar    1  UNL1        0.0850
     17 C          63.7122   90.2682   15.0064 C.ar    1  UNL1        0.0748
     18 CL         63.4436   89.6952   16.3664 Cl      1  UNL1       -0.0807
     19 C          62.8256   89.9066   13.8518 C.ar    1  UNL1        0.0160
     20 C          63.0942   90.4796   12.4918 C.ar    1  UNL1        0.0394
     21 H          65.8942   92.3891   13.3063 H       1  UNL1        0.1674
     22 N          63.3889   84.8942    9.7585 N.pl3   1  UNL1       -0.2127
     23 H          64.2107   84.8158    9.2221 H       1  UNL1        0.1738
     24 S          63.1337   83.9360   10.8840 S.O2    1  UNL1        0.0780
     25 O          61.7550   84.5021   11.0533 O.2     1  UNL1       -0.1498
     26 O          64.5124   83.3700   10.7148 O.2     1  UNL1       -0.1498
     27 C          62.8786   82.9779   12.0095 C.ar    1  UNL1        0.1797
     28 C          62.7160   83.4915   13.4095 C.ar    1  UNL1        0.1611
     29 F          62.8084   84.9633   13.6838 F       1  UNL1       -0.2027
     30 C          62.4609   82.5335   14.5351 C.ar    1  UNL1        0.0312
     31 C          62.3684   81.0617   14.2608 C.ar    1  UNL1        0.0047
     32 C          62.5311   80.5480   12.8609 C.ar    1  UNL1        0.0312
     33 C          62.7862   81.5061   11.7353 C.ar    1  UNL1        0.1611
     34 F          62.9488   80.9924   10.3354 F       1  UNL1       -0.2027
@<TRIPOS>BOND
     1     9    10    2
     2    10     1    1
     3     1     2   ar
     4     2     3    1
     5     2     4   ar
     6     4     5   ar
     7     5     6   ar
     8     6    22    1
     9    22    24    1
    10    24    25    2
    11    24    26    2
    12    24    27    1
    13    27    28   ar
    14    28    29    1
    15    28    30   ar
    16    30    31   ar
    17    31    32   ar
    18    32    33   ar
    19    33    34    1
    20     6     7   ar
    21     7     8    1
    22    10    11    1
    23    11    12   ar
    24    12    13   ar
    25    13    14   ar
    26    14    15   ar
    27    15    16   ar
    28    16    17   ar
    29    17    18    1
    30    17    19   ar
    31    19    20   ar
    32     7     1   ar
    33    20    11   ar
    34    33    27   ar
    35    20    14    1
    36    22    23    1
    37    15    21    1
@<TRIPOS>MOLECULE
*****
 34 37 0 0 0
SMALL
GASTEIGER

@<TRIPOS>ATOM
      1 C          64.0265   88.6209   15.5136 C.ar    1  UNL1        0.0951
      2 C          63.2014   89.0022   16.7069 C.ar    1  UNL1        0.1454
      3 F          62.9687   90.4491   17.0264 F       1  UNL1       -0.2040
      4 C          62.6090   87.9364   17.5805 C.ar    1  UNL1        0.0312
      5 C          62.8417   86.4895   17.2609 C.ar    1  UNL1        0.0204
      6 C          63.6669   86.1082   16.0677 C.ar    1  UNL1        0.0924
      7 C          64.2592   87.1739   15.1941 C.ar    1  UNL1        0.1598
      8 F          65.0844   86.7927   14.0008 F       1  UNL1       -0.2026
      9 O          65.8111   90.4656   15.1109 O.2     1  UNL1       -0.2864
     10 C          64.6190   89.6867   14.6399 C.2     1  UNL1        0.2015
     11 C          64.0191   89.9733   13.2952 C.ar    1  UNL1        0.0612
     12 C          62.9450   89.1730   12.6202 C.ar    1  UNL1        0.1037
     13 N          62.6502   89.8158   11.2974 N.ar    1  UNL1       -0.2269
     14 C          63.5422   91.0133   11.1548 C.ar    1  UNL1        0.1407
     15 N          63.6933   92.0276   10.0602 N.ar    1  UNL1       -0.3367
     16 C          64.6905   93.1394   10.2003 C.ar    1  UNL1        0.0850
     17 C          65.5365   93.2367   11.4351 C.ar    1  UNL1        0.0748
     18 CL         66.5338   94.3485   11.5752 Cl      1  UNL1       -0.0807
     19 C          65.3854   92.2224   12.5297 C.ar    1  UNL1        0.0160
     20 C          64.3882   91.1107   12.3896 C.ar    1  UNL1        0.0394
     21 H          63.1380   91.9637    9.2497 H       1  UNL1        0.1674
     22 N          63.8996   84.6612   15.7481 N.pl3   1  UNL1       -0.2127
     23 H          64.1432   84.0318   16.4649 H       1  UNL1        0.1738
     24 S          63.7611   84.1732   14.3365 S.O2    1  UNL1        0.0780
     25 O          65.2473   83.9875   14.2549 O.2     1  UNL1       -0.1498
     26 O          62.2749   84.3590   14.4181 O.2     1  UNL1       -0.1498
     27 C          63.6225   83.6853   12.9249 C.ar    1  UNL1        0.1797
     28 C          63.3091   84.6544   11.8237 C.ar    1  UNL1        0.1611
     29 F          63.1343   86.1115   12.1342 F       1  UNL1       -0.2027
     30 C          63.1704   84.1665   10.4121 C.ar    1  UNL1        0.0312
     31 C          63.3452   82.7095   10.1016 C.ar    1  UNL1        0.0047
     32 C          63.6586   81.7403   11.2028 C.ar    1  UNL1        0.0312
     33 C          63.7973   82.2282   12.6144 C.ar    1  UNL1        0.1611
     34 F          64.1107   81.2590   13.7156 F       1  UNL1       -0.2027
@<TRIPOS>BOND
     1     9    10    2
     2    10     1    1
     3     1     2   ar
     4     2     3    1
     5     2     4   ar
     6     4     5   ar
     7     5     6   ar
     8     6    22    1
     9    22    24    1
    10    24    25    2
    11    24    26    2
    12    24    27    1
    13    27    28   ar
    14    28    29    1
    15    28    30   ar
    16    30    31   ar
    17    31    32   ar
    18    32    33   ar
    19    33    34    1
    20     6     7   ar
    21     7     8    1
    22    10    11    1
    23    11    12   ar
    24    12    13   ar
    25    13    14   ar
    26    14    15   ar
    27    15    16   ar
    28    16    17   ar
    29    17    18    1
    30    17    19   ar
    31    19    20   ar
    32     7     1   ar
    33    20    11   ar
    34    33    27   ar
    35    20    14    1
    36    22    23    1
    37    15    21    1
@<TRIPOS>MOLECULE
*****
 34 37 0 0 0
SMALL
GASTEIGER

@<TRIPOS>ATOM
      1 C          63.9550   88.3706   15.4237 C.ar    1  UNL1        0.0951
      2 C          63.0651   88.9271   16.4953 C.ar    1  UNL1        0.1454
      3 F          62.8066   90.4031   16.5640 F       1  UNL1       -0.2040
      4 C          62.4337   88.0076   17.4981 C.ar    1  UNL1        0.0312
      5 C          62.6922   86.5316   17.4294 C.ar    1  UNL1        0.0204
      6 C          63.5821   85.9751   16.3578 C.ar    1  UNL1        0.0924
      7 C          64.2135   86.8947   15.3550 C.ar    1  UNL1        0.1598
      8 F          65.1035   86.3383   14.2833 F       1  UNL1       -0.2026
      9 O          65.9854   89.7870   14.6354 O.2     1  UNL1       -0.2864
     10 C          64.5865   89.2902   14.4207 C.2     1  UNL1        0.2015
     11 C          63.8190   89.7127   13.2032 C.ar    1  UNL1        0.0612
     12 C          63.6333   91.1216   12.7230 C.ar    1  UNL1        0.1037
     13 N          62.8020   91.0802   11.4751 N.ar    1  UNL1       -0.2269
     14 C          62.4738   89.6457   11.1841 C.ar    1  UNL1        0.1407
     15 N          61.6839   89.0000   10.0846 N.ar    1  UNL1       -0.3367
     16 C          61.5225   87.5090   10.0532 C.ar    1  UNL1        0.0850
     17 C          62.1511   86.6639   11.1212 C.ar    1  UNL1        0.0748
     18 CL         61.9896   85.1729   11.0897 Cl      1  UNL1       -0.0807
     19 C          62.9410   87.3097   12.2207 C.ar    1  UNL1        0.0160
     20 C          63.1024   88.8006   12.2521 C.ar    1  UNL1        0.0394
     21 H          61.2714   89.5547    9.3837 H       1  UNL1        0.1674
     22 N          63.8406   84.4992   16.2891 N.pl3   1  UNL1       -0.2127
     23 H          64.1343   84.0129   17.0932 H       1  UNL1        0.1738
     24 S          63.6516   83.7641   14.9953 S.O2    1  UNL1        0.0780
     25 O          64.7803   82.8434   15.3536 O.2     1  UNL1       -0.1498
     26 O          62.5230   84.6849   14.6370 O.2     1  UNL1       -0.1498
     27 C          63.4626   83.0292   13.7015 C.ar    1  UNL1        0.1797
     28 C          64.3981   83.2759   12.5551 C.ar    1  UNL1        0.1611
     29 F          65.5226   84.2576   12.7027 F       1  UNL1       -0.2027
     30 C          64.2092   82.5409   11.2613 C.ar    1  UNL1        0.0312
     31 C          63.0847   81.5592   11.1137 C.ar    1  UNL1        0.0047
     32 C          62.1492   81.3125   12.2600 C.ar    1  UNL1        0.0312
     33 C          62.3382   82.0474   13.5539 C.ar    1  UNL1        0.1611
     34 F          61.4027   81.8006   14.7002 F       1  UNL1       -0.2027
@<TRIPOS>BOND
     1     9    10    2
     2    10     1    1
     3     1     2   ar
     4     2     3    1
     5     2     4   ar
     6     4     5   ar
     7     5     6   ar
     8     6    22    1
     9    22    24    1
    10    24    25    2
    11    24    26    2
    12    24    27    1
    13    27    28   ar
    14    28    29    1
    15    28    30   ar
    16    30    31   ar
    17    31    32   ar
    18    32    33   ar
    19    33    34    1
    20     6     7   ar
    21     7     8    1
    22    10    11    1
    23    11    12   ar
    24    12    13   ar
    25    13    14   ar
    26    14    15   ar
    27    15    16   ar
    28    16    17   ar
    29    17    18    1
    30    17    19   ar
    31    19    20   ar
    32     7     1   ar
    33    20    11   ar
    34    33    27   ar
    35    20    14    1
    36    22    23    1
    37    15    21    1
@<TRIPOS>MOLECULE
*****
 34 37 0 0 0
SMALL
GASTEIGER

@<TRIPOS>ATOM
      1 C          62.0365   89.2281   11.6825 C.ar    1  UNL1        0.0951
      2 C          60.8072   89.7031   10.9661 C.ar    1  UNL1        0.1454
      3 F          60.2850   91.0880   11.2097 F       1  UNL1       -0.2040
      4 C          60.1001   88.7930   10.0060 C.ar    1  UNL1        0.0312
      5 C          60.6223   87.4081    9.7623 C.ar    1  UNL1        0.0204
      6 C          61.8515   86.9332   10.4788 C.ar    1  UNL1        0.0924
      7 C          62.5586   87.8432   11.4389 C.ar    1  UNL1        0.1598
      8 F          63.7879   87.3684   12.1554 F       1  UNL1       -0.2026
      9 O          62.4488   90.0542   14.1110 O.2     1  UNL1       -0.2864
     10 C          62.7436   90.1382   12.6427 C.2     1  UNL1        0.2015
     11 C          63.7455   91.1321   12.1345 C.ar    1  UNL1        0.0612
     12 C          63.8823   91.5993   10.7157 C.ar    1  UNL1        0.1037
     13 N          65.0078   92.5893   10.6602 N.ar    1  UNL1       -0.2269
     14 C          65.5666   92.7340   12.0447 C.ar    1  UNL1        0.1407
     15 N          66.6850   93.5695   12.5935 N.ar    1  UNL1       -0.3367
     16 C          67.0232   93.5043   14.0534 C.ar    1  UNL1        0.0850
     17 C          66.2430   92.6037   14.9645 C.ar    1  UNL1        0.0748
     18 CL         66.5813   92.5386   16.4245 Cl      1  UNL1       -0.0807
     19 C          65.1246   91.7683   14.4158 C.ar    1  UNL1        0.0160
     20 C          64.7864   91.8334   12.9559 C.ar    1  UNL1        0.0394
     21 H          67.1971   94.1606   11.9954 H       1  UNL1        0.1674
     22 N          62.3737   85.5483   10.2351 N.pl3   1  UNL1       -0.2127
     23 H          62.4899   85.2210    9.3139 H       1  UNL1        0.1738
     24 S          62.7188   84.6620   11.3950 S.O2    1  UNL1        0.0780
     25 O          63.8227   84.0406   10.5918 O.2     1  UNL1       -0.1498
     26 O          61.6149   85.2834   12.1983 O.2     1  UNL1       -0.1498
     27 C          63.0639   83.7758   12.5550 C.ar    1  UNL1        0.1797
     28 C          62.7992   82.3014   12.4771 C.ar    1  UNL1        0.1611
     29 F          62.1895   81.7133   11.2392 F       1  UNL1       -0.2027
     30 C          63.1443   81.4151   13.6370 C.ar    1  UNL1        0.0312
     31 C          63.7540   82.0032   14.8749 C.ar    1  UNL1        0.0047
     32 C          64.0187   83.4777   14.9528 C.ar    1  UNL1        0.0312
     33 C          63.6736   84.3640   13.7928 C.ar    1  UNL1        0.1611
     34 F          63.9383   85.8384   13.8708 F       1  UNL1       -0.2027
@<TRIPOS>BOND
     1     9    10    2
     2    10     1    1
     3     1     2   ar
     4     2     3    1
     5     2     4   ar
     6     4     5   ar
     7     5     6   ar
     8     6    22    1
     9    22    24    1
    10    24    25    2
    11    24    26    2
    12    24    27    1
    13    27    28   ar
    14    28    29    1
    15    28    30   ar
    16    30    31   ar
    17    31    32   ar
    18    32    33   ar
    19    33    34    1
    20     6     7   ar
    21     7     8    1
    22    10    11    1
    23    11    12   ar
    24    12    13   ar
    25    13    14   ar
    26    14    15   ar
    27    15    16   ar
    28    16    17   ar
    29    17    18    1
    30    17    19   ar
    31    19    20   ar
    32     7     1   ar
    33    20    11   ar
    34    33    27   ar
    35    20    14    1
    36    22    23    1
    37    15    21    1
@<TRIPOS>MOLECULE
*****
 34 37 0 0 0
SMALL
GASTEIGER

@<TRIPOS>ATOM
      1 C          62.4062   89.0575   11.2339 C.ar    1  UNL1        0.0951
      2 C          61.8225   88.4819    9.9777 C.ar    1  UNL1        0.1454
      3 F          61.2336   89.3904    8.9395 F       1  UNL1       -0.2040
      4 C          61.8279   86.9979    9.7597 C.ar    1  UNL1        0.0312
      5 C          62.4169   86.0894   10.7979 C.ar    1  UNL1        0.0204
      6 C          63.0006   86.6650   12.0541 C.ar    1  UNL1        0.0924
      7 C          62.9952   88.1490   12.2721 C.ar    1  UNL1        0.1598
      8 F          63.5789   88.7247   13.5283 F       1  UNL1       -0.2026
      9 O          61.1185   91.2467   11.7807 O.2     1  UNL1       -0.2864
     10 C          62.4009   90.5416   11.4519 C.2     1  UNL1        0.2015
     11 C          63.6781   91.3205   11.3412 C.ar    1  UNL1        0.0612
     12 C          64.3276   91.7722   10.0668 C.ar    1  UNL1        0.1037
     13 N          65.5809   92.5153   10.4235 N.ar    1  UNL1       -0.2269
     14 C          65.7058   92.5229   11.9183 C.ar    1  UNL1        0.1407
     15 N          66.7385   93.1068   12.8362 N.ar    1  UNL1       -0.3367
     16 C          66.5952   92.9522   14.3213 C.ar    1  UNL1        0.0850
     17 C          65.4191   92.2138   14.8885 C.ar    1  UNL1        0.0748
     18 CL         65.2758   92.0593   16.3736 Cl      1  UNL1       -0.0807
     19 C          64.3865   91.6299   13.9706 C.ar    1  UNL1        0.0160
     20 C          64.5298   91.7844   12.4855 C.ar    1  UNL1        0.0394
     21 H          67.5104   93.5914   12.4639 H       1  UNL1        0.1674
     22 N          63.5895   85.7565   13.0923 N.pl3   1  UNL1       -0.2127
     23 H          64.1792   86.1235   13.7901 H       1  UNL1        0.1738
     24 S          63.2802   84.2890   13.0672 S.O2    1  UNL1        0.0780
     25 O          64.7006   83.9961   12.6842 O.2     1  UNL1       -0.1498
     26 O          61.8598   84.5819   13.4502 O.2     1  UNL1       -0.1498
     27 C          62.9707   82.8215   13.0422 C.ar    1  UNL1        0.1797
     28 C          62.5841   82.1148   14.3076 C.ar    1  UNL1        0.1611
     29 F          62.5070   82.8757   15.5979 F       1  UNL1       -0.2027
     30 C          62.2747   80.6473   14.2826 C.ar    1  UNL1        0.0312
     31 C          62.3518   79.8864   12.9923 C.ar    1  UNL1        0.0047
     32 C          62.7384   80.5931   11.7269 C.ar    1  UNL1        0.0312
     33 C          63.0478   82.0606   11.7518 C.ar    1  UNL1        0.1611
     34 F          63.4344   82.7672   10.4864 F       1  UNL1       -0.2027
@<TRIPOS>BOND
     1     9    10    2
     2    10     1    1
     3     1     2   ar
     4     2     3    1
     5     2     4   ar
     6     4     5   ar
     7     5     6   ar
     8     6    22    1
     9    22    24    1
    10    24    25    2
    11    24    26    2
    12    24    27    1
    13    27    28   ar
    14    28    29    1
    15    28    30   ar
    16    30    31   ar
    17    31    32   ar
    18    32    33   ar
    19    33    34    1
    20     6     7   ar
    21     7     8    1
    22    10    11    1
    23    11    12   ar
    24    12    13   ar
    25    13    14   ar
    26    14    15   ar
    27    15    16   ar
    28    16    17   ar
    29    17    18    1
    30    17    19   ar
    31    19    20   ar
    32     7     1   ar
    33    20    11   ar
    34    33    27   ar
    35    20    14    1
    36    22    23    1
    37    15    21    1
@<TRIPOS>MOLECULE
*****
 34 37 0 0 0
SMALL
GASTEIGER

@<TRIPOS>ATOM
      1 C          61.1633   88.3351    9.8556 C.ar    1  UNL1        0.0951
      2 C          60.2750   88.0265    8.6869 C.ar    1  UNL1        0.1454
      3 F          59.2181   89.0054    8.2692 F       1  UNL1       -0.2040
      4 C          60.4438   86.7390    7.9361 C.ar    1  UNL1        0.0312
      5 C          61.5008   85.7601    8.3538 C.ar    1  UNL1        0.0204
      6 C          62.3890   86.0687    9.5225 C.ar    1  UNL1        0.0924
      7 C          62.2202   87.3562   10.2734 C.ar    1  UNL1        0.1598
      8 F          63.1084   87.6648   11.4421 F       1  UNL1       -0.2026
      9 O          59.9969   90.6395   10.1369 O.2     1  UNL1       -0.2864
     10 C          60.9945   89.6226   10.6066 C.2     1  UNL1        0.2015
     11 C          61.8234   89.8932   11.8272 C.ar    1  UNL1        0.0612
     12 C          61.5491   89.3817   13.2103 C.ar    1  UNL1        0.1037
     13 N          62.6283   89.8951   14.1168 N.ar    1  UNL1       -0.2269
     14 C          63.5696   90.7239   13.2939 C.ar    1  UNL1        0.1407
     15 N          64.8154   91.4795   13.6503 N.ar    1  UNL1       -0.3367
     16 C          65.5637   92.2338   12.5916 C.ar    1  UNL1        0.0850
     17 C          65.0662   92.2326   11.1765 C.ar    1  UNL1        0.0748
     18 CL         65.8146   92.9871   10.1177 Cl      1  UNL1       -0.0807
     19 C          63.8204   91.4770   10.8201 C.ar    1  UNL1        0.0160
     20 C          63.0721   90.7227   11.8788 C.ar    1  UNL1        0.0394
     21 H          65.1419   91.4803   14.5790 H       1  UNL1        0.1674
     22 N          63.4460   85.0898    9.9403 N.pl3   1  UNL1       -0.2127
     23 H          64.3321   85.1093    9.5117 H       1  UNL1        0.1738
     24 S          63.1529   84.0811   11.0111 S.O2    1  UNL1        0.0780
     25 O          64.5389   83.5259   10.8675 O.2     1  UNL1       -0.1498
     26 O          61.7669   84.6364   11.1548 O.2     1  UNL1       -0.1498
     27 C          62.8597   83.0725   12.0820 C.ar    1  UNL1        0.1797
     28 C          62.6505   83.5213   13.4979 C.ar    1  UNL1        0.1611
     29 F          62.7345   84.9786   13.8429 F       1  UNL1       -0.2027
     30 C          62.3573   82.5127   14.5689 C.ar    1  UNL1        0.0312
     31 C          62.2733   81.0554   14.2239 C.ar    1  UNL1        0.0047
     32 C          62.4826   80.6066   12.8079 C.ar    1  UNL1        0.0312
     33 C          62.7757   81.6152   11.7370 C.ar    1  UNL1        0.1611
     34 F          62.9849   81.1663   10.3211 F       1  UNL1       -0.2027
@<TRIPOS>BOND
     1     9    10    2
     2    10     1    1
     3     1     2   ar
     4     2     3    1
     5     2     4   ar
     6     4     5   ar
     7     5     6   ar
     8     6    22    1
     9    22    24    1
    10    24    25    2
    11    24    26    2
    12    24    27    1
    13    27    28   ar
    14    28    29    1
    15    28    30   ar
    16    30    31   ar
    17    31    32   ar
    18    32    33   ar
    19    33    34    1
    20     6     7   ar
    21     7     8    1
    22    10    11    1
    23    11    12   ar
    24    12    13   ar
    25    13    14   ar
    26    14    15   ar
    27    15    16   ar
    28    16    17   ar
    29    17    18    1
    30    17    19   ar
    31    19    20   ar
    32     7     1   ar
    33    20    11   ar
    34    33    27   ar
    35    20    14    1
    36    22    23    1
    37    15    21    1
@<TRIPOS>MOLECULE
*****
 34 37 0 0 0
SMALL
GASTEIGER

@<TRIPOS>ATOM
      1 C          61.9568   86.4902   10.6612 C.ar    1  UNL1        0.0951
      2 C          60.8139   86.7099    9.7149 C.ar    1  UNL1        0.1454
      3 F          60.4323   85.6375    8.7380 F       1  UNL1       -0.2040
      4 C          60.0526   88.0019    9.7455 C.ar    1  UNL1        0.0312
      5 C          60.4341   89.0743   10.7225 C.ar    1  UNL1        0.0204
      6 C          61.5770   88.8547   11.6688 C.ar    1  UNL1        0.0924
      7 C          62.3383   87.5626   11.6381 C.ar    1  UNL1        0.1598
      8 F          63.4813   87.3429   12.5844 F       1  UNL1       -0.2026
      9 O          63.5281   84.8334    9.4220 O.2     1  UNL1       -0.2864
     10 C          62.7182   85.1981   10.6306 C.2     1  UNL1        0.2015
     11 C          62.6696   84.2709   11.8087 C.ar    1  UNL1        0.0612
     12 C          62.5616   84.6790   13.2481 C.ar    1  UNL1        0.1037
     13 N          62.5457   83.4331   14.0832 N.ar    1  UNL1       -0.2269
     14 C          62.6438   82.2549   13.1599 C.ar    1  UNL1        0.1407
     15 N          62.6734   80.7775   13.4176 N.ar    1  UNL1       -0.3367
     16 C          62.7795   79.8180   12.2696 C.ar    1  UNL1        0.0850
     17 C          62.8561   80.3358   10.8639 C.ar    1  UNL1        0.0748
     18 CL         62.9622   79.3762    9.7159 Cl      1  UNL1       -0.0807
     19 C          62.8265   81.8132   10.6062 C.ar    1  UNL1        0.0160
     20 C          62.7204   82.7727   11.7542 C.ar    1  UNL1        0.0394
     21 H          62.6231   80.4377   14.3402 H       1  UNL1        0.1674
     22 N          61.9586   89.9271   12.6457 N.pl3   1  UNL1       -0.2127
     23 H          61.3618   90.1421   13.3986 H       1  UNL1        0.1738
     24 S          63.2494   90.6720   12.4754 S.O2    1  UNL1        0.0780
     25 O          63.1221   91.2112   13.8693 O.2     1  UNL1       -0.1498
     26 O          63.3766   90.1328   11.0815 O.2     1  UNL1       -0.1498
     27 C          64.5401   91.4168   12.3051 C.ar    1  UNL1        0.1797
     28 C          64.7627   92.2629   11.0865 C.ar    1  UNL1        0.1611
     29 F          63.6944   92.3640   10.0385 F       1  UNL1       -0.2027
     30 C          66.0535   93.0077   10.9161 C.ar    1  UNL1        0.0312
     31 C          67.1218   92.9066   11.9642 C.ar    1  UNL1        0.0047
     32 C          66.8992   92.0605   13.1827 C.ar    1  UNL1        0.0312
     33 C          65.6085   91.3156   13.3531 C.ar    1  UNL1        0.1611
     34 F          65.3860   90.4696   14.5716 F       1  UNL1       -0.2027
@<TRIPOS>BOND
     1     9    10    2
     2    10     1    1
     3     1     2   ar
     4     2     3    1
     5     2     4   ar
     6     4     5   ar
     7     5     6   ar
     8     6    22    1
     9    22    24    1
    10    24    25    2
    11    24    26    2
    12    24    27    1
    13    27    28   ar
    14    28    29    1
    15    28    30   ar
    16    30    31   ar
    17    31    32   ar
    18    32    33   ar
    19    33    34    1
    20     6     7   ar
    21     7     8    1
    22    10    11    1
    23    11    12   ar
    24    12    13   ar
    25    13    14   ar
    26    14    15   ar
    27    15    16   ar
    28    16    17   ar
    29    17    18    1
    30    17    19   ar
    31    19    20   ar
    32     7     1   ar
    33    20    11   ar
    34    33    27   ar
    35    20    14    1
    36    22    23    1
    37    15    21    1
@<TRIPOS>MOLECULE
*****
 34 37 0 0 0
SMALL
GASTEIGER

@<TRIPOS>ATOM
      1 C          63.8980   87.4493   14.7685 C.ar    1  UNL1        0.0951
      2 C          63.5863   88.2566   15.9937 C.ar    1  UNL1        0.1454
      3 F          63.8443   87.6832   17.3555 F       1  UNL1       -0.2040
      4 C          63.0164   89.6374   15.8569 C.ar    1  UNL1        0.0312
      5 C          62.7584   90.2108   14.4951 C.ar    1  UNL1        0.0204
      6 C          63.0701   89.4035   13.2700 C.ar    1  UNL1        0.0924
      7 C          63.6399   88.0227   13.4067 C.ar    1  UNL1        0.1598
      8 F          63.9517   87.2153   12.1816 F       1  UNL1       -0.2026
      9 O          65.9410   85.8828   15.1178 O.2     1  UNL1       -0.2864
     10 C          64.4679   86.0684   14.9052 C.2     1  UNL1        0.2015
     11 C          63.5645   84.8733   14.8292 C.ar    1  UNL1        0.0612
     12 C          62.6189   84.4135   15.8990 C.ar    1  UNL1        0.1037
     13 N          61.9182   83.1843   15.4010 N.ar    1  UNL1       -0.2269
     14 C          62.4307   82.8844   14.0236 C.ar    1  UNL1        0.1407
     15 N          62.1024   81.7956   13.0454 N.ar    1  UNL1       -0.3367
     16 C          62.7915   81.7508   11.7139 C.ar    1  UNL1        0.0850
     17 C          63.8091   82.7947   11.3605 C.ar    1  UNL1        0.0748
     18 CL         64.4983   82.7498   10.0289 Cl      1  UNL1       -0.0807
     19 C          64.1374   83.8835   12.3387 C.ar    1  UNL1        0.0160
     20 C          63.4483   83.9283   13.6702 C.ar    1  UNL1        0.0394
     21 H          61.4345   81.1105   13.2774 H       1  UNL1        0.1674
     22 N          62.8120   89.9769   11.9082 N.pl3   1  UNL1       -0.2127
     23 H          63.1614   90.8672   11.6746 H       1  UNL1        0.1738
     24 S          62.0216   89.1939   10.9022 S.O2    1  UNL1        0.0780
     25 O          60.9745   88.9176   11.9400 O.2     1  UNL1       -0.1498
     26 O          63.0687   89.4703    9.8643 O.2     1  UNL1       -0.1498
     27 C          61.2312   88.4109    9.8961 C.ar    1  UNL1        0.1797
     28 C          60.1374   89.0793    9.1170 C.ar    1  UNL1        0.1611
     29 F          59.8340   90.5306    9.3441 F       1  UNL1       -0.2027
     30 C          59.3469   88.2964    8.1110 C.ar    1  UNL1        0.0312
     31 C          59.6503   86.8450    7.8839 C.ar    1  UNL1        0.0047
     32 C          60.7441   86.1767    8.6629 C.ar    1  UNL1        0.0312
     33 C          61.5346   86.9596    9.6690 C.ar    1  UNL1        0.1611
     34 F          62.6284   86.2912   10.4480 F       1  UNL1       -0.2027
@<TRIPOS>BOND
     1     9    10    2
     2    10     1    1
     3     1     2   ar
     4     2     3    1
     5     2     4   ar
     6     4     5   ar
     7     5     6   ar
     8     6    22    1
     9    22    24    1
    10    24    25    2
    11    24    26    2
    12    24    27    1
    13    27    28   ar
    14    28    29    1
    15    28    30   ar
    16    30    31   ar
    17    31    32   ar
    18    32    33   ar
    19    33    34    1
    20     6     7   ar
    21     7     8    1
    22    10    11    1
    23    11    12   ar
    24    12    13   ar
    25    13    14   ar
    26    14    15   ar
    27    15    16   ar
    28    16    17   ar
    29    17    18    1
    30    17    19   ar
    31    19    20   ar
    32     7     1   ar
    33    20    11   ar
    34    33    27   ar
    35    20    14    1
    36    22    23    1
    37    15    21    1
@<TRIPOS>MOLECULE
*****
 34 37 0 0 0
SMALL
GASTEIGER

@<TRIPOS>ATOM
      1 C          63.6893   88.3902   15.6089 C.ar    1  UNL1        0.0951
      2 C          63.0170   88.5285   16.9427 C.ar    1  UNL1        0.1454
      3 F          62.6434   89.8872   17.4569 F       1  UNL1       -0.2040
      4 C          62.7184   87.3082   17.7621 C.ar    1  UNL1        0.0312
      5 C          63.0920   85.9495   17.2478 C.ar    1  UNL1        0.0204
      6 C          63.7643   85.8112   15.9141 C.ar    1  UNL1        0.0924
      7 C          64.0629   87.0316   15.0946 C.ar    1  UNL1        0.1598
      8 F          64.7352   86.8934   13.7609 F       1  UNL1       -0.2026
      9 O          63.7165   89.6083   13.3142 O.2     1  UNL1       -0.2864
     10 C          63.9880   89.6106   14.7894 C.2     1  UNL1        0.2015
     11 C          64.5582   90.8333   15.4451 C.ar    1  UNL1        0.0612
     12 C          63.9391   91.5955   16.5791 C.ar    1  UNL1        0.1037
     13 N          64.8459   92.7417   16.9168 N.ar    1  UNL1       -0.2269
     14 C          66.0254   92.6878   15.9916 C.ar    1  UNL1        0.1407
     15 N          67.2383   93.5604   15.8598 N.ar    1  UNL1       -0.3367
     16 C          68.2734   93.2535   14.8186 C.ar    1  UNL1        0.0850
     17 C          68.0956   92.0741   13.9090 C.ar    1  UNL1        0.0748
     18 CL         69.1307   91.7672   12.8677 Cl      1  UNL1       -0.0807
     19 C          66.8826   91.2015   14.0408 C.ar    1  UNL1        0.0160
     20 C          65.8475   91.5084   15.0821 C.ar    1  UNL1        0.0394
     21 H          67.3550   94.3345   16.4568 H       1  UNL1        0.1674
     22 N          64.1379   84.4526   15.3998 N.pl3   1  UNL1       -0.2127
     23 H          64.4943   83.7735   16.0171 H       1  UNL1        0.1738
     24 S          63.9686   84.1287   13.9450 S.O2    1  UNL1        0.0780
     25 O          62.4782   84.1682   14.1097 O.2     1  UNL1       -0.1498
     26 O          65.4590   84.0892   13.7803 O.2     1  UNL1       -0.1498
     27 C          63.7993   83.8047   12.4903 C.ar    1  UNL1        0.1797
     28 C          64.1878   82.4513   11.9731 C.ar    1  UNL1        0.1611
     29 F          64.7456   81.4220   12.9108 F       1  UNL1       -0.2027
     30 C          64.0186   82.1273   10.5183 C.ar    1  UNL1        0.0312
     31 C          63.4608   83.1567    9.5806 C.ar    1  UNL1        0.0047
     32 C          63.0723   84.5101   10.0978 C.ar    1  UNL1        0.0312
     33 C          63.2416   84.8341   11.5526 C.ar    1  UNL1        0.1611
     34 F          62.8530   86.1875   12.0697 F       1  UNL1       -0.2027
@<TRIPOS>BOND
     1     9    10    2
     2    10     1    1
     3     1     2   ar
     4     2     3    1
     5     2     4   ar
     6     4     5   ar
     7     5     6   ar
     8     6    22    1
     9    22    24    1
    10    24    25    2
    11    24    26    2
    12    24    27    1
    13    27    28   ar
    14    28    29    1
    15    28    30   ar
    16    30    31   ar
    17    31    32   ar
    18    32    33   ar
    19    33    34    1
    20     6     7   ar
    21     7     8    1
    22    10    11    1
    23    11    12   ar
    24    12    13   ar
    25    13    14   ar
    26    14    15   ar
    27    15    16   ar
    28    16    17   ar
    29    17    18    1
    30    17    19   ar
    31    19    20   ar
    32     7     1   ar
    33    20    11   ar
    34    33    27   ar
    35    20    14    1
    36    22    23    1
    37    15    21    1
