@<TRIPOS>MOLECULE
*****
 33 36 0 0 0
SMALL
GASTEIGER

@<TRIPOS>ATOM
      1 C          63.5246   89.7084   12.6215 C.ar    1  UNL1        0.0949
      2 C          62.8443   89.4304   11.3138 C.ar    1  UNL1        0.1454
      3 F          62.5011   90.5623   10.3914 F       1  UNL1       -0.2040
      4 C          62.5073   88.0204   10.9287 C.ar    1  UNL1        0.0312
      5 C          62.8505   86.8885   11.8512 C.ar    1  UNL1        0.0204
      6 C          63.5308   87.1665   13.1588 C.ar    1  UNL1        0.0924
      7 C          63.8678   88.5765   13.5440 C.ar    1  UNL1        0.1598
      8 F          64.5480   88.8546   14.8516 F       1  UNL1       -0.2026
      9 C          63.8616   91.1185   13.0067 C.2     1  UNL1        0.2006
     10 O          62.7906   92.0297   13.5285 O.2     1  UNL1       -0.2866
     11 C          65.9770   92.0493   15.4823 C.2     1  UNL1        0.0659
     12 C          67.0880   92.5107   16.3783 C.2     1  UNL1        0.0573
     13 C          68.3974   92.9430   15.7877 C.2     1  UNL1        0.2361
     14 N          68.5958   92.9138   14.3012 N.2     1  UNL1       -0.0340
     15 C          67.4848   92.4523   13.4053 C.2     1  UNL1        0.3601
     16 N          67.3883   92.3164   11.9145 N.2     1  UNL1       -0.0342
     17 C          66.0193   91.8003   11.5838 C.2     1  UNL1        0.2354
     18 C          65.2697   91.6171   12.8701 C.2     1  UNL1        0.0799
     19 C          66.1754   92.0201   13.9958 C.3     1  UNL1        0.1729
     20 N          63.3583   91.1848   16.6635 N.1     1  UNL1       -0.1911
     21 C          64.6677   91.6171   16.0729 C.1     1  UNL1        0.0971
     22 N          63.8740   86.0346   14.0813 N.pl3   1  UNL1       -0.2127
     23 H          64.3151   86.2176   14.9422 H       1  UNL1        0.1738
     24 S          63.5450   84.6239   13.6921 S.O2    1  UNL1        0.0758
     25 O          62.0857   84.9100   13.8883 O.2     1  UNL1       -0.1499
     26 O          65.0043   84.3377   13.4959 O.2     1  UNL1       -0.1499
     27 C          63.2161   83.2131   13.3029 C.ar    1  UNL1        0.1524
     28 C          62.7978   82.2242   14.3504 C.ar    1  UNL1        0.0225
     29 C          62.4689   80.8134   13.9613 C.ar    1  UNL1        0.0015
     30 C          62.5583   80.3914   12.5246 C.ar    1  UNL1        0.0024
     31 C          62.9767   81.3803   11.4772 C.ar    1  UNL1        0.0310
     32 C          63.3056   82.7911   11.8663 C.ar    1  UNL1        0.1589
     33 F          63.7239   83.7799   10.8188 F       1  UNL1       -0.2027
@<TRIPOS>BOND
     1    20    21    3
     2    21    11    1
     3    11    12    2
     4    12    13    1
     5    13    14    2
     6    14    15    1
     7    15    16    2
     8    16    17    1
     9    17    18    2
    10    18     9    1
    11     9    10    2
    12     9     1    1
    13     1     2   ar
    14     2     3    1
    15     2     4   ar
    16     4     5   ar
    17     5     6   ar
    18     6    22    1
    19    22    24    1
    20    24    25    2
    21    24    26    2
    22    24    27    1
    23    27    28   ar
    24    28    29   ar
    25    29    30   ar
    26    30    31   ar
    27    31    32   ar
    28    32    33    1
    29     6     7   ar
    30     7     8    1
    31    18    19    1
    32    19    11    1
    33    19    15    1
    34     7     1   ar
    35    32    27   ar
    36    22    23    1
@<TRIPOS>MOLECULE
*****
 33 36 0 0 0
SMALL
GASTEIGER

@<TRIPOS>ATOM
      1 C          61.8362   88.9296   11.1053 C.ar    1  UNL1        0.0949
      2 C          60.6984   89.2411   10.1788 C.ar    1  UNL1        0.1454
      3 F          59.9902   90.5596   10.2777 F       1  UNL1       -0.2040
      4 C          60.2690   88.2340    9.1535 C.ar    1  UNL1        0.0312
      5 C          60.9773   86.9155    9.0547 C.ar    1  UNL1        0.0204
      6 C          62.1151   86.6039    9.9812 C.ar    1  UNL1        0.0924
      7 C          62.5445   87.6110   11.0065 C.ar    1  UNL1        0.1598
      8 F          63.6823   87.2996   11.9331 F       1  UNL1       -0.2026
      9 C          62.2657   89.9367   12.1308 C.2     1  UNL1        0.2006
     10 O          61.6068   89.9630   13.4779 O.2     1  UNL1       -0.2866
     11 C          64.9620   90.7301   14.0204 C.2     1  UNL1        0.0659
     12 C          66.2181   91.2492   14.6549 C.2     1  UNL1        0.0573
     13 C          67.0468   92.2787   13.9453 C.2     1  UNL1        0.2361
     14 N          66.6194   92.7889   12.6011 N.2     1  UNL1       -0.0340
     15 C          65.3633   92.2697   11.9665 C.2     1  UNL1        0.3601
     16 N          64.6950   92.5829   10.6607 N.2     1  UNL1       -0.0342
     17 C          63.4533   91.7471   10.5632 C.2     1  UNL1        0.2354
     18 C          63.3542   90.9173   11.8089 C.2     1  UNL1        0.0799
     19 C          64.5347   91.2403   12.6762 C.3     1  UNL1        0.1729
     20 N          63.3047   88.6712   15.4397 N.1     1  UNL1       -0.1911
     21 C          64.1334   89.7006   14.7300 C.1     1  UNL1        0.0971
     22 N          62.8233   85.2854    9.8823 N.pl3   1  UNL1       -0.2127
     23 H          63.3273   85.0572    9.0680 H       1  UNL1        0.1738
     24 S          62.7637   84.3146   11.0242 S.O2    1  UNL1        0.0758
     25 O          63.9741   83.6094   10.4879 O.2     1  UNL1       -0.1499
     26 O          61.5533   85.0198   11.5606 O.2     1  UNL1       -0.1499
     27 C          62.7040   83.3438   12.1662 C.ar    1  UNL1        0.1524
     28 C          62.4405   81.8909   11.9024 C.ar    1  UNL1        0.0225
     29 C          62.3807   80.9200   13.0442 C.ar    1  UNL1        0.0015
     30 C          62.5845   81.4021   14.4500 C.ar    1  UNL1        0.0024
     31 C          62.8479   82.8551   14.7137 C.ar    1  UNL1        0.0310
     32 C          62.9077   83.8259   13.5719 C.ar    1  UNL1        0.1589
     33 F          63.1711   85.2788   13.8357 F       1  UNL1       -0.2027
@<TRIPOS>BOND
     1    20    21    3
     2    21    11    1
     3    11    12    2
     4    12    13    1
     5    13    14    2
     6    14    15    1
     7    15    16    2
     8    16    17    1
     9    17    18    2
    10    18     9    1
    11     9    10    2
    12     9     1    1
    13     1     2   ar
    14     2     3    1
    15     2     4   ar
    16     4     5   ar
    17     5     6   ar
    18     6    22    1
    19    22    24    1
    20    24    25    2
    21    24    26    2
    22    24    27    1
    23    27    28   ar
    24    28    29   ar
    25    29    30   ar
    26    30    31   ar
    27    31    32   ar
    28    32    33    1
    29     6     7   ar
    30     7     8    1
    31    18    19    1
    32    19    11    1
    33    19    15    1
    34     7     1   ar
    35    32    27   ar
    36    22    23    1
@<TRIPOS>MOLECULE
*****
 33 36 0 0 0
SMALL
GASTEIGER

@<TRIPOS>ATOM
      1 C          61.7790   88.6745   10.9378 C.ar    1  UNL1        0.0949
      2 C          60.6575   88.8727    9.9617 C.ar    1  UNL1        0.1454
      3 F          59.8570   90.1410    9.9863 F       1  UNL1       -0.2040
      4 C          60.3365   87.8025    8.9609 C.ar    1  UNL1        0.0312
      5 C          61.1370   86.5342    8.9362 C.ar    1  UNL1        0.0204
      6 C          62.2585   86.3360    9.9124 C.ar    1  UNL1        0.0924
      7 C          62.5795   87.4063   10.9132 C.ar    1  UNL1        0.1598
      8 F          63.7011   87.2082   11.8894 F       1  UNL1       -0.2026
      9 C          62.1001   89.7448   11.9387 C.2     1  UNL1        0.2006
     10 O          61.3606   89.7983   13.2426 O.2     1  UNL1       -0.2866
     11 C          64.7443   90.6156   13.8675 C.2     1  UNL1        0.0659
     12 C          65.9745   91.1719   14.5210 C.2     1  UNL1        0.0573
     13 C          66.7789   92.2307   13.8268 C.2     1  UNL1        0.2361
     14 N          66.3531   92.7332   12.4792 N.2     1  UNL1       -0.0340
     15 C          65.1229   92.1769   11.8257 C.2     1  UNL1        0.3601
     16 N          64.4622   92.4745   10.5123 N.2     1  UNL1       -0.0342
     17 C          63.2494   91.5997   10.3948 C.2     1  UNL1        0.2354
     18 C          63.1606   90.7614   11.6355 C.2     1  UNL1        0.0799
     19 C          64.3185   91.1181   12.5198 C.3     1  UNL1        0.1729
     20 N          63.1354   88.4980   15.2558 N.1     1  UNL1       -0.1911
     21 C          63.9398   89.5568   14.5616 C.1     1  UNL1        0.0971
     22 N          63.0590   85.0678    9.8877 N.pl3   1  UNL1       -0.2127
     23 H          63.6850   84.8951    9.1478 H       1  UNL1        0.1738
     24 S          62.9057   84.0626   10.9905 S.O2    1  UNL1        0.0758
     25 O          61.6157   84.7090   11.4004 O.2     1  UNL1       -0.1499
     26 O          64.1958   83.4162   10.5806 O.2     1  UNL1       -0.1499
     27 C          62.7525   83.0574   12.0932 C.ar    1  UNL1        0.1524
     28 C          62.5725   83.5189   13.5091 C.ar    1  UNL1        0.0225
     29 C          62.4193   82.5137   14.6119 C.ar    1  UNL1        0.0015
     30 C          62.4461   81.0470   14.2989 C.ar    1  UNL1        0.0024
     31 C          62.6262   80.5855   12.8830 C.ar    1  UNL1        0.0310
     32 C          62.7794   81.5907   11.7802 C.ar    1  UNL1        0.1589
     33 F          62.9594   81.1291   10.3644 F       1  UNL1       -0.2027
@<TRIPOS>BOND
     1    20    21    3
     2    21    11    1
     3    11    12    2
     4    12    13    1
     5    13    14    2
     6    14    15    1
     7    15    16    2
     8    16    17    1
     9    17    18    2
    10    18     9    1
    11     9    10    2
    12     9     1    1
    13     1     2   ar
    14     2     3    1
    15     2     4   ar
    16     4     5   ar
    17     5     6   ar
    18     6    22    1
    19    22    24    1
    20    24    25    2
    21    24    26    2
    22    24    27    1
    23    27    28   ar
    24    28    29   ar
    25    29    30   ar
    26    30    31   ar
    27    31    32   ar
    28    32    33    1
    29     6     7   ar
    30     7     8    1
    31    18    19    1
    32    19    11    1
    33    19    15    1
    34     7     1   ar
    35    32    27   ar
    36    22    23    1
@<TRIPOS>MOLECULE
*****
 33 36 0 0 0
SMALL
GASTEIGER

@<TRIPOS>ATOM
      1 C          62.7277   86.5781   12.0073 C.ar    1  UNL1        0.0949
      2 C          61.7179   86.2333   10.9531 C.ar    1  UNL1        0.1454
      3 F          61.5385   84.8072   10.5243 F       1  UNL1       -0.2040
      4 C          60.8877   87.3147   10.3277 C.ar    1  UNL1        0.0312
      5 C          61.0671   88.7409   10.7565 C.ar    1  UNL1        0.0204
      6 C          62.0769   89.0857   11.8107 C.ar    1  UNL1        0.0924
      7 C          62.9072   88.0043   12.4361 C.ar    1  UNL1        0.1598
      8 F          63.9170   88.3490   13.4904 F       1  UNL1       -0.2026
      9 C          63.5581   85.4967   12.6328 C.2     1  UNL1        0.2006
     10 O          64.3773   85.7919   13.8541 O.2     1  UNL1       -0.2866
     11 C          62.2907   82.6535   13.9668 C.2     1  UNL1        0.0659
     12 C          61.8186   81.2772   14.3313 C.2     1  UNL1        0.0573
     13 C          62.0510   80.1312   13.3917 C.2     1  UNL1        0.2361
     14 N          62.7554   80.3616   12.0876 N.2     1  UNL1       -0.0340
     15 C          63.2275   81.7380   11.7231 C.2     1  UNL1        0.3601
     16 N          63.9453   82.2661   10.5166 N.2     1  UNL1       -0.0342
     17 C          64.1565   83.7385   10.7104 C.2     1  UNL1        0.2354
     18 C          63.5693   84.1202   12.0369 C.2     1  UNL1        0.0799
     19 C          62.9951   82.8839   12.6627 C.3     1  UNL1        0.1729
     20 N          61.8259   84.9453   15.8460 N.1     1  UNL1       -0.1911
     21 C          62.0583   83.7994   14.9064 C.1     1  UNL1        0.0971
     22 N          62.2563   90.5118   12.2395 N.pl3   1  UNL1       -0.2127
     23 H          61.4879   91.1273   12.2359 H       1  UNL1        0.1738
     24 S          63.6064   91.0002   12.6738 S.O2    1  UNL1        0.0758
     25 O          64.0960   90.9045   11.2592 O.2     1  UNL1       -0.1499
     26 O          63.1168   91.0959   14.0884 O.2     1  UNL1       -0.1499
     27 C          64.9565   91.4886   13.1081 C.ar    1  UNL1        0.1524
     28 C          65.6121   90.9000   14.3221 C.ar    1  UNL1        0.0225
     29 C          66.9622   91.3883   14.7565 C.ar    1  UNL1        0.0015
     30 C          67.6568   92.4652   13.9770 C.ar    1  UNL1        0.0024
     31 C          67.0012   93.0538   12.7629 C.ar    1  UNL1        0.0310
     32 C          65.6511   92.5655   12.3285 C.ar    1  UNL1        0.1589
     33 F          64.9956   93.1541   11.1145 F       1  UNL1       -0.2027
@<TRIPOS>BOND
     1    20    21    3
     2    21    11    1
     3    11    12    2
     4    12    13    1
     5    13    14    2
     6    14    15    1
     7    15    16    2
     8    16    17    1
     9    17    18    2
    10    18     9    1
    11     9    10    2
    12     9     1    1
    13     1     2   ar
    14     2     3    1
    15     2     4   ar
    16     4     5   ar
    17     5     6   ar
    18     6    22    1
    19    22    24    1
    20    24    25    2
    21    24    26    2
    22    24    27    1
    23    27    28   ar
    24    28    29   ar
    25    29    30   ar
    26    30    31   ar
    27    31    32   ar
    28    32    33    1
    29     6     7   ar
    30     7     8    1
    31    18    19    1
    32    19    11    1
    33    19    15    1
    34     7     1   ar
    35    32    27   ar
    36    22    23    1
@<TRIPOS>MOLECULE
*****
 33 36 0 0 0
SMALL
GASTEIGER

@<TRIPOS>ATOM
      1 C          63.0411   89.4457   13.0492 C.ar    1  UNL1        0.0949
      2 C          63.9012   88.7379   14.0538 C.ar    1  UNL1        0.1454
      3 F          63.5338   87.3593   14.5168 F       1  UNL1       -0.2040
      4 C          65.1287   89.4087   14.5952 C.ar    1  UNL1        0.0312
      5 C          65.4961   90.7873   14.1321 C.ar    1  UNL1        0.0204
      6 C          64.6360   91.4952   13.1276 C.ar    1  UNL1        0.0924
      7 C          63.4085   90.8243   12.5861 C.ar    1  UNL1        0.1598
      8 F          62.5483   91.5321   11.5815 F       1  UNL1       -0.2026
      9 C          61.8135   88.7749   12.5076 C.2     1  UNL1        0.2006
     10 O          60.4538   89.2340   12.9438 O.2     1  UNL1       -0.2866
     11 C          60.3151   88.4661    9.4861 C.2     1  UNL1        0.0659
     12 C          59.7841   88.0945    8.1334 C.2     1  UNL1        0.0573
     13 C          60.2005   86.8037    7.4928 C.2     1  UNL1        0.2361
     14 N          61.1480   85.8844    8.2050 N.2     1  UNL1       -0.0340
     15 C          61.6790   86.2560    9.5577 C.2     1  UNL1        0.3601
     16 N          62.6196   85.5564   10.4936 N.2     1  UNL1       -0.0342
     17 C          62.7845   86.4148   11.7126 C.2     1  UNL1        0.2354
     18 C          61.9458   87.6449   11.5300 C.2     1  UNL1        0.0799
     19 C          61.2626   87.5468   10.1982 C.3     1  UNL1        0.1729
     20 N          59.4823   91.0477   10.7673 N.1     1  UNL1       -0.1911
     21 C          59.8987   89.7569   10.1267 C.1     1  UNL1        0.0971
     22 N          65.0033   92.8738   12.6645 N.pl3   1  UNL1       -0.2127
     23 H          64.6412   93.6622   13.1298 H       1  UNL1        0.1738
     24 S          65.9225   93.0512   11.4924 S.O2    1  UNL1        0.0758
     25 O          67.0398   93.4169   12.4240 O.2     1  UNL1       -0.1499
     26 O          64.8051   92.6854   10.5609 O.2     1  UNL1       -0.1499
     27 C          66.8415   93.2285   10.3203 C.ar    1  UNL1        0.1524
     28 C          67.8365   92.1592    9.9789 C.ar    1  UNL1        0.0225
     29 C          68.7556   92.3365    8.8067 C.ar    1  UNL1        0.0015
     30 C          68.6797   93.5831    7.9760 C.ar    1  UNL1        0.0024
     31 C          67.6847   94.6524    8.3175 C.ar    1  UNL1        0.0310
     32 C          66.7656   94.4751    9.4896 C.ar    1  UNL1        0.1589
     33 F          65.7706   95.5445    9.8309 F       1  UNL1       -0.2027
@<TRIPOS>BOND
     1    20    21    3
     2    21    11    1
     3    11    12    2
     4    12    13    1
     5    13    14    2
     6    14    15    1
     7    15    16    2
     8    16    17    1
     9    17    18    2
    10    18     9    1
    11     9    10    2
    12     9     1    1
    13     1     2   ar
    14     2     3    1
    15     2     4   ar
    16     4     5   ar
    17     5     6   ar
    18     6    22    1
    19    22    24    1
    20    24    25    2
    21    24    26    2
    22    24    27    1
    23    27    28   ar
    24    28    29   ar
    25    29    30   ar
    26    30    31   ar
    27    31    32   ar
    28    32    33    1
    29     6     7   ar
    30     7     8    1
    31    18    19    1
    32    19    11    1
    33    19    15    1
    34     7     1   ar
    35    32    27   ar
    36    22    23    1
@<TRIPOS>MOLECULE
*****
 33 36 0 0 0
SMALL
GASTEIGER

@<TRIPOS>ATOM
      1 C          62.9462   86.1410   12.1258 C.ar    1  UNL1        0.0949
      2 C          62.1719   85.8442   10.8758 C.ar    1  UNL1        0.1454
      3 F          62.1456   84.4499   10.3232 F       1  UNL1       -0.2040
      4 C          61.4240   86.9416   10.1785 C.ar    1  UNL1        0.0312
      5 C          61.4504   88.3358   10.7311 C.ar    1  UNL1        0.0204
      6 C          62.2246   88.6327   11.9811 C.ar    1  UNL1        0.0924
      7 C          62.9725   87.5353   12.6784 C.ar    1  UNL1        0.1598
      8 F          63.7468   87.8321   13.9284 F       1  UNL1       -0.2026
      9 C          63.6941   85.0436   12.8232 C.2     1  UNL1        0.2006
     10 O          65.1814   84.9312   12.6643 O.2     1  UNL1       -0.2866
     11 C          63.1764   81.7522   12.2158 C.2     1  UNL1        0.0659
     12 C          62.8150   80.2968   12.1824 C.2     1  UNL1        0.0573
     13 C          62.0249   79.6941   13.3060 C.2     1  UNL1        0.2361
     14 N          61.5961   80.5469   14.4631 N.2     1  UNL1       -0.0340
     15 C          61.9575   82.0023   14.4966 C.2     1  UNL1        0.3601
     16 N          61.6763   83.0836   15.4975 N.2     1  UNL1       -0.0342
     17 C          62.2926   84.3545   14.9925 C.2     1  UNL1        0.2354
     18 C          62.9547   84.0586   13.6795 C.2     1  UNL1        0.0799
     19 C          62.7476   82.6050   13.3729 C.3     1  UNL1        0.1729
     20 N          64.7566   82.9575    9.9686 N.1     1  UNL1       -0.1911
     21 C          63.9665   82.3548   11.0922 C.1     1  UNL1        0.0971
     22 N          62.2509   90.0270   12.5337 N.pl3   1  UNL1       -0.2127
     23 H          61.4097   90.5227   12.6592 H       1  UNL1        0.1738
     24 S          63.5591   90.6659   12.8950 S.O2    1  UNL1        0.0758
     25 O          63.9723   90.6350   11.4534 O.2     1  UNL1       -0.1499
     26 O          63.1458   90.6967   14.3366 O.2     1  UNL1       -0.1499
     27 C          64.8671   91.3048   13.2564 C.ar    1  UNL1        0.1524
     28 C          65.6300   90.8254   14.4557 C.ar    1  UNL1        0.0225
     29 C          66.9381   91.4643   14.8173 C.ar    1  UNL1        0.0015
     30 C          67.4834   92.5826   13.9795 C.ar    1  UNL1        0.0024
     31 C          66.7205   93.0621   12.7802 C.ar    1  UNL1        0.0310
     32 C          65.4124   92.4232   12.4187 C.ar    1  UNL1        0.1589
     33 F          64.6497   92.9027   11.2194 F       1  UNL1       -0.2027
@<TRIPOS>BOND
     1    20    21    3
     2    21    11    1
     3    11    12    2
     4    12    13    1
     5    13    14    2
     6    14    15    1
     7    15    16    2
     8    16    17    1
     9    17    18    2
    10    18     9    1
    11     9    10    2
    12     9     1    1
    13     1     2   ar
    14     2     3    1
    15     2     4   ar
    16     4     5   ar
    17     5     6   ar
    18     6    22    1
    19    22    24    1
    20    24    25    2
    21    24    26    2
    22    24    27    1
    23    27    28   ar
    24    28    29   ar
    25    29    30   ar
    26    30    31   ar
    27    31    32   ar
    28    32    33    1
    29     6     7   ar
    30     7     8    1
    31    18    19    1
    32    19    11    1
    33    19    15    1
    34     7     1   ar
    35    32    27   ar
    36    22    23    1
@<TRIPOS>MOLECULE
*****
 33 36 0 0 0
SMALL
GASTEIGER

@<TRIPOS>ATOM
      1 C          63.2232   88.0584   12.6085 C.ar    1  UNL1        0.0949
      2 C          63.9284   87.6075   13.8533 C.ar    1  UNL1        0.1454
      3 F          63.8611   86.1694   14.2743 F       1  UNL1       -0.2040
      4 C          64.7008   88.5948   14.6770 C.ar    1  UNL1        0.0312
      5 C          64.7681   90.0329   14.2560 C.ar    1  UNL1        0.0204
      6 C          64.0629   90.4839   13.0113 C.ar    1  UNL1        0.0924
      7 C          63.2905   89.4966   12.1876 C.ar    1  UNL1        0.1598
      8 F          62.5853   89.9474   10.9428 F       1  UNL1       -0.2026
      9 C          62.4507   87.0711   11.7847 C.2     1  UNL1        0.2006
     10 O          62.9048   85.6439   11.7039 O.2     1  UNL1       -0.2866
     11 C          61.3664   85.9989    8.7607 C.2     1  UNL1        0.0659
     12 C          60.6826   85.6971    7.4602 C.2     1  UNL1        0.0573
     13 C          59.4109   86.4061    7.0993 C.2     1  UNL1        0.2361
     14 N          58.8230   87.4168    8.0388 N.2     1  UNL1       -0.0340
     15 C          59.5068   87.7186    9.3393 C.2     1  UNL1        0.3601
     16 N          59.1666   88.6583   10.4578 N.2     1  UNL1       -0.0342
     17 C          60.2279   88.5302   11.5100 C.2     1  UNL1        0.2354
     18 C          61.2241   87.5112   11.0418 C.2     1  UNL1        0.0799
     19 C          60.7785   87.0096    9.7002 C.3     1  UNL1        0.1729
     20 N          63.9097   84.5810    9.4825 N.1     1  UNL1       -0.1911
     21 C          62.6380   85.2899    9.1216 C.1     1  UNL1        0.0971
     22 N          64.1302   91.9220   12.5903 N.pl3   1  UNL1       -0.2127
     23 H          63.4471   92.5587   12.9021 H       1  UNL1        0.1738
     24 S          65.2384   92.3901   11.6943 S.O2    1  UNL1        0.0758
     25 O          64.4009   92.0705   10.4916 O.2     1  UNL1       -0.1499
     26 O          66.0759   92.7096   12.8969 O.2     1  UNL1       -0.1499
     27 C          66.3465   92.8582   10.7983 C.ar    1  UNL1        0.1524
     28 C          67.4508   91.9173   10.4169 C.ar    1  UNL1        0.0225
     29 C          68.5590   92.3853    9.5210 C.ar    1  UNL1        0.0015
     30 C          68.5630   93.7942    9.0063 C.ar    1  UNL1        0.0024
     31 C          67.4588   94.7351    9.3877 C.ar    1  UNL1        0.0310
     32 C          66.3505   94.2671   10.2836 C.ar    1  UNL1        0.1589
     33 F          65.2463   95.2080   10.6649 F       1  UNL1       -0.2027
@<TRIPOS>BOND
     1    20    21    3
     2    21    11    1
     3    11    12    2
     4    12    13    1
     5    13    14    2
     6    14    15    1
     7    15    16    2
     8    16    17    1
     9    17    18    2
    10    18     9    1
    11     9    10    2
    12     9     1    1
    13     1     2   ar
    14     2     3    1
    15     2     4   ar
    16     4     5   ar
    17     5     6   ar
    18     6    22    1
    19    22    24    1
    20    24    25    2
    21    24    26    2
    22    24    27    1
    23    27    28   ar
    24    28    29   ar
    25    29    30   ar
    26    30    31   ar
    27    31    32   ar
    28    32    33    1
    29     6     7   ar
    30     7     8    1
    31    18    19    1
    32    19    11    1
    33    19    15    1
    34     7     1   ar
    35    32    27   ar
    36    22    23    1
@<TRIPOS>MOLECULE
*****
 33 36 0 0 0
SMALL
GASTEIGER

@<TRIPOS>ATOM
      1 C          62.8541   88.0716   12.4149 C.ar    1  UNL1        0.0949
      2 C          63.7392   87.6432   13.5476 C.ar    1  UNL1        0.1454
      3 F          63.7400   86.2128   13.9992 F       1  UNL1       -0.2040
      4 C          64.6233   88.6453   14.2288 C.ar    1  UNL1        0.0312
      5 C          64.6225   90.0757   13.7772 C.ar    1  UNL1        0.0204
      6 C          63.7374   90.5041   12.6444 C.ar    1  UNL1        0.0924
      7 C          62.8532   89.5020   11.9633 C.ar    1  UNL1        0.1598
      8 F          61.9681   89.9303   10.8305 F       1  UNL1       -0.2026
      9 C          61.9698   87.0695   11.7336 C.2     1  UNL1        0.2006
     10 O          60.5223   86.9664   12.1129 O.2     1  UNL1       -0.2866
     11 C          62.8303   83.8072   12.0286 C.2     1  UNL1        0.0659
     12 C          63.2801   82.3821   11.8988 C.2     1  UNL1        0.0573
     13 C          63.8015   81.8768   10.5863 C.2     1  UNL1        0.2361
     14 N          63.8731   82.7965    9.4035 N.2     1  UNL1       -0.0340
     15 C          63.4233   84.2215    9.5333 C.2     1  UNL1        0.3601
     16 N          63.3768   85.3529    8.5495 N.2     1  UNL1       -0.0342
     17 C          62.8267   86.5575    9.2540 C.2     1  UNL1        0.2354
     18 C          62.5332   86.1706   10.6732 C.2     1  UNL1        0.0799
     19 C          62.9019   84.7269   10.8458 C.3     1  UNL1        0.1729
     20 N          61.7874   84.8178   14.6536 N.1     1  UNL1       -0.1911
     21 C          62.3089   84.3125   13.3411 C.1     1  UNL1        0.0971
     22 N          63.7366   91.9345   12.1928 N.pl3   1  UNL1       -0.2127
     23 H          62.9729   92.5177   12.4067 H       1  UNL1        0.1738
     24 S          64.8994   92.4762   11.4155 S.O2    1  UNL1        0.0758
     25 O          65.4571   93.0799   12.6703 O.2     1  UNL1       -0.1499
     26 O          64.3418   91.8725   10.1606 O.2     1  UNL1       -0.1499
     27 C          66.0622   93.0179   10.6380 C.ar    1  UNL1        0.1524
     28 C          67.2246   92.1284   10.3097 C.ar    1  UNL1        0.0225
     29 C          68.3874   92.6700    9.5322 C.ar    1  UNL1        0.0015
     30 C          68.3879   94.1011    9.0830 C.ar    1  UNL1        0.0024
     31 C          67.2256   94.9906    9.4113 C.ar    1  UNL1        0.0310
     32 C          66.0627   94.4490   10.1888 C.ar    1  UNL1        0.1589
     33 F          64.9004   95.3386   10.5171 F       1  UNL1       -0.2027
@<TRIPOS>BOND
     1    20    21    3
     2    21    11    1
     3    11    12    2
     4    12    13    1
     5    13    14    2
     6    14    15    1
     7    15    16    2
     8    16    17    1
     9    17    18    2
    10    18     9    1
    11     9    10    2
    12     9     1    1
    13     1     2   ar
    14     2     3    1
    15     2     4   ar
    16     4     5   ar
    17     5     6   ar
    18     6    22    1
    19    22    24    1
    20    24    25    2
    21    24    26    2
    22    24    27    1
    23    27    28   ar
    24    28    29   ar
    25    29    30   ar
    26    30    31   ar
    27    31    32   ar
    28    32    33    1
    29     6     7   ar
    30     7     8    1
    31    18    19    1
    32    19    11    1
    33    19    15    1
    34     7     1   ar
    35    32    27   ar
    36    22    23    1
@<TRIPOS>MOLECULE
*****
 33 36 0 0 0
SMALL
GASTEIGER

@<TRIPOS>ATOM
      1 C          63.2267   83.7828   11.2158 C.ar    1  UNL1        0.0949
      2 C          63.1249   82.2995   11.0167 C.ar    1  UNL1        0.1454
      3 F          62.6799   81.7490    9.6943 F       1  UNL1       -0.2040
      4 C          63.4680   81.3668   12.1402 C.ar    1  UNL1        0.0312
      5 C          63.9130   81.9173   13.4627 C.ar    1  UNL1        0.0204
      6 C          64.0148   83.4005   13.6617 C.ar    1  UNL1        0.0924
      7 C          63.6717   84.3332   12.5383 C.ar    1  UNL1        0.1598
      8 F          63.7735   85.8165   12.7372 F       1  UNL1       -0.2026
      9 C          62.8835   84.7156   10.0923 C.2     1  UNL1        0.2006
     10 O          63.5461   84.5560    8.7561 O.2     1  UNL1       -0.2866
     11 C          60.8235   86.1088    7.7933 C.2     1  UNL1        0.0659
     12 C          59.8243   86.8778    6.9807 C.2     1  UNL1        0.0573
     13 C          58.9840   87.9364    7.6313 C.2     1  UNL1        0.2361
     14 N          59.1428   88.2259    9.0945 N.2     1  UNL1       -0.0340
     15 C          60.1419   87.4569    9.9071 C.2     1  UNL1        0.3601
     16 N          60.5181   87.5206   11.3577 N.2     1  UNL1       -0.0342
     17 C          61.5909   86.5015   11.6037 C.2     1  UNL1        0.2354
     18 C          61.8777   85.8079   10.3050 C.2     1  UNL1        0.0799
     19 C          60.9822   86.3983    9.2564 C.3     1  UNL1        0.1729
     20 N          62.5041   83.9917    6.4920 N.1     1  UNL1       -0.1911
     21 C          61.6638   85.0502    7.1427 C.1     1  UNL1        0.0971
     22 N          64.4598   83.9510   14.9842 N.pl3   1  UNL1       -0.2127
     23 H          64.9360   83.3727   15.6230 H       1  UNL1        0.1738
     24 S          64.1794   85.3825   15.3334 S.O2    1  UNL1        0.0758
     25 O          65.6236   85.7201   15.1094 O.2     1  UNL1       -0.1499
     26 O          62.7351   85.0450   15.5573 O.2     1  UNL1       -0.1499
     27 C          63.8988   86.8141   15.6825 C.ar    1  UNL1        0.1524
     28 C          64.2788   87.9072   14.7281 C.ar    1  UNL1        0.0225
     29 C          63.9983   89.3388   15.0772 C.ar    1  UNL1        0.0015
     30 C          63.3378   89.6773   16.3807 C.ar    1  UNL1        0.0024
     31 C          62.9578   88.5842   17.3351 C.ar    1  UNL1        0.0310
     32 C          63.2383   87.1526   16.9860 C.ar    1  UNL1        0.1589
     33 F          62.8583   86.0596   17.9404 F       1  UNL1       -0.2027
@<TRIPOS>BOND
     1    20    21    3
     2    21    11    1
     3    11    12    2
     4    12    13    1
     5    13    14    2
     6    14    15    1
     7    15    16    2
     8    16    17    1
     9    17    18    2
    10    18     9    1
    11     9    10    2
    12     9     1    1
    13     1     2   ar
    14     2     3    1
    15     2     4   ar
    16     4     5   ar
    17     5     6   ar
    18     6    22    1
    19    22    24    1
    20    24    25    2
    21    24    26    2
    22    24    27    1
    23    27    28   ar
    24    28    29   ar
    25    29    30   ar
    26    30    31   ar
    27    31    32   ar
    28    32    33    1
    29     6     7   ar
    30     7     8    1
    31    18    19    1
    32    19    11    1
    33    19    15    1
    34     7     1   ar
    35    32    27   ar
    36    22    23    1
