@<TRIPOS>MOLECULE
*****
 35 39 0 0 0
SMALL
GASTEIGER

@<TRIPOS>ATOM
      1 C          64.2228   86.5801   15.2905 C.3     1  UNL1        0.0730
      2 N          64.1165   85.4302   14.3332 N.3     1  UNL1       -0.2726
      3 C          64.7057   84.0644   14.5269 C.3     1  UNL1        0.0721
      4 C          64.3557   83.2343   13.3275 C.3     1  UNL1        0.0190
      5 C          63.5502   84.0870   12.3927 C.3     1  UNL1        0.0201
      6 C          63.3603   83.0326   11.3429 C.3     1  UNL1        0.0061
      7 C          62.7710   84.3983   11.1492 C.3     1  UNL1        0.0237
      8 C          63.4023   85.4442   13.0142 C.3     1  UNL1        0.0724
      9 C          61.9810   85.3666   10.3196 C.ar    1  UNL1       -0.0225
     10 C          61.1340   86.4092   10.9869 C.ar    1  UNL1       -0.0043
     11 C          60.3440   87.3775   10.1573 C.ar    1  UNL1        0.0035
     12 C          60.4010   87.3030    8.6602 C.ar    1  UNL1        0.0714
     13 C          61.2480   86.2604    7.9928 C.ar    1  UNL1        0.0035
     14 C          62.0381   85.2921    8.8225 C.ar    1  UNL1       -0.0043
     15 C          59.6110   88.2713    7.8305 C.3     1  UNL1        0.4186
     16 F          58.8210   89.2396    7.0008 F       1  UNL1       -0.1659
     17 F          59.0373   87.1297    7.0446 F       1  UNL1       -0.1659
     18 F          60.1847   89.4128    8.6164 F       1  UNL1       -0.1659
     19 C          64.4554   87.9684   14.7722 C.3     1  UNL1        0.0294
     20 C          63.6742   89.1193   15.3336 C.3     1  UNL1        0.0666
     21 S          63.3397   90.2943   14.4632 S.3     1  UNL1       -0.0756
     22 C          63.9276   91.2644   11.4033 C.3     1  UNL1        0.1337
     23 N          64.6917   91.6848   12.6238 N.ar    1  UNL1       -0.2918
     24 C          64.4214   91.2389   14.0302 C.ar    1  UNL1        0.1930
     25 N          65.4228   91.9035   14.9278 N.ar    1  UNL1       -0.1224
     26 N          66.3120   92.7601   14.0760 N.ar    1  UNL1       -0.1328
     27 C          65.8602   92.6251   12.6520 C.ar    1  UNL1        0.1437
     28 C          66.4698   93.3099   11.4648 C.3     1  UNL1        0.0696
     29 C          66.2899   94.7872   11.2770 C.3     1  UNL1        0.0293
     30 C          66.8995   95.4720   10.0898 C.3     1  UNL1        0.0898
     31 N          67.6889   94.6794    9.0905 N.am    1  UNL1       -0.3043
     32 C          67.8688   93.2022    9.2783 C.2     1  UNL1        0.2229
     33 O          68.6582   92.4097    8.2789 O.2     1  UNL1       -0.2751
     34 C          67.2592   92.5174   10.4655 C.3     1  UNL1        0.0926
     35 H          68.0890   95.1289    8.3113 H       1  UNL1        0.1494
@<TRIPOS>BOND
     1    22    23    1
     2    23    24   ar
     3    24    21    1
     4    21    20    1
     5    20    19    1
     6    19     1    1
     7     1     2    1
     8     2     3    1
     9     3     4    1
    10     5     4    1
    11     5     6    1
    12     6     7    1
    13     7     9    1
    14     9    10   ar
    15    10    11   ar
    16    11    12   ar
    17    12    15    1
    18    15    16    1
    19    15    17    1
    20    15    18    1
    21    12    13   ar
    22    13    14   ar
    23     5     8    1
    24    24    25   ar
    25    25    26   ar
    26    26    27   ar
    27    27    28    1
    28    28    29    1
    29    29    30    1
    30    30    31    1
    31    31    32   am
    32    32    33    2
    33    32    34    1
    34    27    23   ar
    35    34    28    1
    36     8     2    1
    37     7     5    1
    38    14     9   ar
    39    31    35    1
@<TRIPOS>MOLECULE
*****
 35 39 0 0 0
SMALL
GASTEIGER

@<TRIPOS>ATOM
      1 C          65.0522   85.0060   14.4796 C.3     1  UNL1        0.0730
      2 N          64.3814   86.1157   15.2337 N.3     1  UNL1       -0.2726
      3 C          63.5548   85.9635   16.4761 C.3     1  UNL1        0.0721
      4 C          63.0819   87.3261   16.8879 C.3     1  UNL1        0.0190
      5 C          63.6161   88.3204   15.9000 C.3     1  UNL1        0.0201
      6 C          63.0048   89.5280   16.5466 C.3     1  UNL1        0.0061
      7 C          63.8313   89.6801   15.3041 C.3     1  UNL1        0.0237
      8 C          64.4193   87.5723   14.8776 C.3     1  UNL1        0.0724
      9 C          64.4328   90.5529   14.2428 C.ar    1  UNL1       -0.0225
     10 C          65.7415   91.2425   14.4915 C.ar    1  UNL1       -0.0043
     11 C          66.3429   92.1153   13.4302 C.ar    1  UNL1        0.0035
     12 C          65.6357   92.2986   12.1202 C.ar    1  UNL1        0.0714
     13 C          64.3270   91.6090   11.8714 C.ar    1  UNL1        0.0035
     14 C          63.7255   90.7362   12.9328 C.ar    1  UNL1       -0.0043
     15 C          66.2371   93.1714   11.0588 C.3     1  UNL1        0.4186
     16 F          66.8386   94.0442    9.9974 F       1  UNL1       -0.1659
     17 F          65.7202   94.3885   11.7669 F       1  UNL1       -0.1659
     18 F          66.7540   91.9542   10.3508 F       1  UNL1       -0.1659
     19 C          64.2734   83.7836   14.0937 C.3     1  UNL1        0.0294
     20 C          64.6189   83.0394   12.8379 C.3     1  UNL1        0.0666
     21 S          63.5665   82.7945   11.7975 S.3     1  UNL1       -0.0756
     22 C          61.8910   85.5525   12.2833 C.3     1  UNL1        0.1337
     23 N          62.5047   85.1101   10.9880 N.ar    1  UNL1       -0.2918
     24 C          63.2748   83.8425   10.7647 C.ar    1  UNL1        0.1930
     25 N          63.7020   83.8067    9.3273 N.ar    1  UNL1       -0.1224
     26 N          63.1959   85.0523    8.6622 N.ar    1  UNL1       -0.1328
     27 C          62.4559   85.8579    9.6885 C.ar    1  UNL1        0.1437
     28 C          61.7849   87.1792    9.4562 C.3     1  UNL1        0.0696
     29 C          62.2731   88.4042   10.1710 C.3     1  UNL1        0.0293
     30 C          61.6021   89.7255    9.9387 C.3     1  UNL1        0.0898
     31 N          60.4430   89.8217    8.9914 N.am    1  UNL1       -0.3043
     32 C          59.9548   88.5967    8.2766 C.2     1  UNL1        0.2229
     33 O          58.7957   88.6930    7.3294 O.2     1  UNL1       -0.2751
     34 C          60.6258   87.2754    8.5090 C.3     1  UNL1        0.0926
     35 H          60.0026   90.6889    8.8389 H       1  UNL1        0.1494
@<TRIPOS>BOND
     1    22    23    1
     2    23    24   ar
     3    24    21    1
     4    21    20    1
     5    20    19    1
     6    19     1    1
     7     1     2    1
     8     2     3    1
     9     3     4    1
    10     5     4    1
    11     5     6    1
    12     6     7    1
    13     7     9    1
    14     9    10   ar
    15    10    11   ar
    16    11    12   ar
    17    12    15    1
    18    15    16    1
    19    15    17    1
    20    15    18    1
    21    12    13   ar
    22    13    14   ar
    23     5     8    1
    24    24    25   ar
    25    25    26   ar
    26    26    27   ar
    27    27    28    1
    28    28    29    1
    29    29    30    1
    30    30    31    1
    31    31    32   am
    32    32    33    2
    33    32    34    1
    34    27    23   ar
    35    34    28    1
    36     8     2    1
    37     7     5    1
    38    14     9   ar
    39    31    35    1
@<TRIPOS>MOLECULE
*****
 35 39 0 0 0
SMALL
GASTEIGER

@<TRIPOS>ATOM
      1 C          61.5765   86.8398    8.9248 C.3     1  UNL1        0.0730
      2 N          62.3779   85.6874    9.4537 N.3     1  UNL1       -0.2726
      3 C          62.9521   84.5656    8.6400 C.3     1  UNL1        0.0721
      4 C          63.6749   83.6394    9.5726 C.3     1  UNL1        0.0190
      5 C          63.5475   84.1888   10.9626 C.3     1  UNL1        0.0201
      6 C          64.3312   83.1001   11.6339 C.3     1  UNL1        0.0061
      7 C          63.7570   84.2219   12.4475 C.3     1  UNL1        0.0237
      8 C          62.7459   85.4545   10.8891 C.3     1  UNL1        0.0724
      9 C          63.5465   84.8887   13.7746 C.ar    1  UNL1       -0.0225
     10 C          64.2677   86.1641   14.0958 C.ar    1  UNL1       -0.0043
     11 C          64.0572   86.8309   15.4229 C.ar    1  UNL1        0.0035
     12 C          63.1256   86.2223   16.4286 C.ar    1  UNL1        0.0714
     13 C          62.4044   84.9468   16.1074 C.ar    1  UNL1        0.0035
     14 C          62.6149   84.2800   14.7803 C.ar    1  UNL1       -0.0043
     15 C          62.9151   86.8891   17.7557 C.3     1  UNL1        0.4186
     16 F          62.7046   87.5559   19.0828 F       1  UNL1       -0.1659
     17 F          62.4132   85.5957   18.3260 F       1  UNL1       -0.1659
     18 F          63.4169   88.1825   17.1854 F       1  UNL1       -0.1659
     19 C          60.1948   87.0959    9.4494 C.3     1  UNL1        0.0294
     20 C          59.9850   88.0817   10.5604 C.3     1  UNL1        0.0666
     21 S          60.6592   89.4208   10.5122 S.3     1  UNL1       -0.0756
     22 C          63.2944   91.2971   10.0819 C.3     1  UNL1        0.1337
     23 N          62.8668   90.6597   11.3706 N.ar    1  UNL1       -0.2918
     24 C          61.6555   89.7972   11.5684 C.ar    1  UNL1        0.1930
     25 N          61.6155   89.3773   13.0079 N.ar    1  UNL1       -0.1224
     26 N          62.8020   89.9802   13.6998 N.ar    1  UNL1       -0.1328
     27 C          63.5754   90.7728   12.6880 C.ar    1  UNL1        0.1437
     28 C          64.8359   91.5432   12.9478 C.3     1  UNL1        0.0696
     29 C          65.6981   91.1957   14.1250 C.3     1  UNL1        0.0293
     30 C          66.9587   91.9661   14.3848 C.3     1  UNL1        0.0898
     31 N          67.3570   93.0840   13.4673 N.am    1  UNL1       -0.3043
     32 C          66.4948   93.4315   12.2901 C.2     1  UNL1        0.2229
     33 O          66.8932   94.5493   11.3727 O.2     1  UNL1       -0.2751
     34 C          65.2342   92.6610   12.0303 C.3     1  UNL1        0.0926
     35 H          68.1843   93.5896   13.6378 H       1  UNL1        0.1494
@<TRIPOS>BOND
     1    22    23    1
     2    23    24   ar
     3    24    21    1
     4    21    20    1
     5    20    19    1
     6    19     1    1
     7     1     2    1
     8     2     3    1
     9     3     4    1
    10     5     4    1
    11     5     6    1
    12     6     7    1
    13     7     9    1
    14     9    10   ar
    15    10    11   ar
    16    11    12   ar
    17    12    15    1
    18    15    16    1
    19    15    17    1
    20    15    18    1
    21    12    13   ar
    22    13    14   ar
    23     5     8    1
    24    24    25   ar
    25    25    26   ar
    26    26    27   ar
    27    27    28    1
    28    28    29    1
    29    29    30    1
    30    30    31    1
    31    31    32   am
    32    32    33    2
    33    32    34    1
    34    27    23   ar
    35    34    28    1
    36     8     2    1
    37     7     5    1
    38    14     9   ar
    39    31    35    1
@<TRIPOS>MOLECULE
*****
 35 39 0 0 0
SMALL
GASTEIGER

@<TRIPOS>ATOM
      1 C          63.1436   85.5676    8.5598 C.3     1  UNL1        0.0730
      2 N          62.0924   86.5975    8.8499 N.3     1  UNL1       -0.2726
      3 C          60.6414   86.5046    8.4811 C.3     1  UNL1        0.0721
      4 C          59.9599   87.7509    8.9631 C.3     1  UNL1        0.0190
      5 C          60.9897   88.6140    9.6298 C.3     1  UNL1        0.0201
      6 C          60.0519   89.7286    9.9881 C.3     1  UNL1        0.0061
      7 C          61.5028   89.8215   10.3570 C.3     1  UNL1        0.0237
      8 C          62.3076   87.9013    9.5599 C.3     1  UNL1        0.0724
      9 C          62.6368   90.5723   10.9897 C.ar    1  UNL1       -0.0225
     10 C          63.4746   91.5021   10.1629 C.ar    1  UNL1       -0.0043
     11 C          64.6086   92.2529   10.7957 C.ar    1  UNL1        0.0035
     12 C          64.9047   92.0739   12.2552 C.ar    1  UNL1        0.0714
     13 C          64.0669   91.1440   13.0820 C.ar    1  UNL1        0.0035
     14 C          62.9329   90.3933   12.4492 C.ar    1  UNL1       -0.0043
     15 C          66.0387   92.8246   12.8880 C.3     1  UNL1        0.4186
     16 F          67.1728   93.5754   13.5208 F       1  UNL1       -0.1659
     17 F          65.6853   94.0386   12.0810 F       1  UNL1       -0.1659
     18 F          66.3921   91.6106   13.6950 F       1  UNL1       -0.1659
     19 C          62.9136   84.1342    8.9371 C.3     1  UNL1        0.0294
     20 C          63.9472   83.3926    9.7320 C.3     1  UNL1        0.0666
     21 S          63.5686   82.7344   11.0256 S.3     1  UNL1       -0.0756
     22 C          62.3600   85.5242   12.2112 C.3     1  UNL1        0.1337
     23 N          63.3874   84.6559   12.8749 N.ar    1  UNL1       -0.2918
     24 C          63.9429   83.3736   12.3299 C.ar    1  UNL1        0.1930
     25 N          64.9385   82.8426   13.3183 N.ar    1  UNL1       -0.1224
     26 N          64.9983   83.7968   14.4741 N.ar    1  UNL1       -0.1328
     27 C          64.0397   84.9175   14.2002 C.ar    1  UNL1        0.1437
     28 C          63.7790   86.0933   15.0944 C.3     1  UNL1        0.0696
     29 C          64.1052   87.4799   14.6243 C.3     1  UNL1        0.0293
     30 C          63.8446   88.6557   15.5185 C.3     1  UNL1        0.0898
     31 N          63.2578   88.4447   16.8829 N.am    1  UNL1       -0.3043
     32 C          62.9317   87.0582   17.3529 C.2     1  UNL1        0.2229
     33 O          62.3449   86.8473   18.7172 O.2     1  UNL1       -0.2751
     34 C          63.1923   85.8824   16.4586 C.3     1  UNL1        0.0926
     35 H          63.0867   89.2164   17.4698 H       1  UNL1        0.1494
@<TRIPOS>BOND
     1    22    23    1
     2    23    24   ar
     3    24    21    1
     4    21    20    1
     5    20    19    1
     6    19     1    1
     7     1     2    1
     8     2     3    1
     9     3     4    1
    10     5     4    1
    11     5     6    1
    12     6     7    1
    13     7     9    1
    14     9    10   ar
    15    10    11   ar
    16    11    12   ar
    17    12    15    1
    18    15    16    1
    19    15    17    1
    20    15    18    1
    21    12    13   ar
    22    13    14   ar
    23     5     8    1
    24    24    25   ar
    25    25    26   ar
    26    26    27   ar
    27    27    28    1
    28    28    29    1
    29    29    30    1
    30    30    31    1
    31    31    32   am
    32    32    33    2
    33    32    34    1
    34    27    23   ar
    35    34    28    1
    36     8     2    1
    37     7     5    1
    38    14     9   ar
    39    31    35    1
@<TRIPOS>MOLECULE
*****
 35 39 0 0 0
SMALL
GASTEIGER

@<TRIPOS>ATOM
      1 C          63.5803   90.3109   15.8948 C.3     1  UNL1        0.0730
      2 N          64.0421   90.9254   14.6067 N.3     1  UNL1       -0.2726
      3 C          65.0990   91.9799   14.4619 C.3     1  UNL1        0.0721
      4 C          65.2380   92.2995   13.0030 C.3     1  UNL1        0.0190
      5 C          64.2671   91.4425   12.2461 C.3     1  UNL1        0.0201
      6 C          64.6247   91.9641   10.8859 C.3     1  UNL1        0.0061
      7 C          63.5678   90.9096   11.0307 C.3     1  UNL1        0.0237
      8 C          63.5279   90.5933   13.2373 C.3     1  UNL1        0.0724
      9 C          62.5539   89.9931   10.4127 C.ar    1  UNL1       -0.0225
     10 C          62.8786   88.5426   10.2107 C.ar    1  UNL1       -0.0043
     11 C          61.8647   87.6261    9.5927 C.ar    1  UNL1        0.0035
     12 C          60.5262   88.1601    9.1766 C.ar    1  UNL1        0.0714
     13 C          60.2015   89.6106    9.3785 C.ar    1  UNL1        0.0035
     14 C          61.2154   90.5271    9.9966 C.ar    1  UNL1       -0.0043
     15 C          59.5123   87.2436    8.5585 C.3     1  UNL1        0.4186
     16 F          58.4983   86.3271    7.9404 F       1  UNL1       -0.1659
     17 F          60.1786   86.0677    9.2091 F       1  UNL1       -0.1659
     18 F          58.8459   88.4195    7.9079 F       1  UNL1       -0.1659
     19 C          63.3428   88.8322   15.9776 C.3     1  UNL1        0.0294
     20 C          63.0671   88.1899   17.3048 C.3     1  UNL1        0.0666
     21 S          63.1580   86.6997   17.4502 S.3     1  UNL1       -0.0756
     22 C          65.0624   85.8164   14.9517 C.3     1  UNL1        0.1337
     23 N          63.6357   85.4034   15.1619 N.ar    1  UNL1       -0.2918
     24 C          62.7604   85.8094   16.3103 C.ar    1  UNL1        0.1930
     25 N          61.4176   85.1689   16.1188 N.ar    1  UNL1       -0.1224
     26 N          61.4631   84.3669   14.8520 N.ar    1  UNL1       -0.1328
     27 C          62.8340   84.5118   14.2606 C.ar    1  UNL1        0.1437
     28 C          63.3180   83.8767   12.9908 C.3     1  UNL1        0.0696
     29 C          64.0583   82.5730   13.0391 C.3     1  UNL1        0.0293
     30 C          64.5424   81.9379   11.7693 C.3     1  UNL1        0.0898
     31 N          64.2861   82.6066   10.4512 N.am    1  UNL1       -0.3043
     32 C          63.5458   83.9103   10.4029 C.2     1  UNL1        0.2229
     33 O          63.2896   84.5788    9.0848 O.2     1  UNL1       -0.2751
     34 C          63.0618   84.5453   11.6728 C.3     1  UNL1        0.0926
     35 H          64.6038   82.1898    9.6178 H       1  UNL1        0.1494
@<TRIPOS>BOND
     1    22    23    1
     2    23    24   ar
     3    24    21    1
     4    21    20    1
     5    20    19    1
     6    19     1    1
     7     1     2    1
     8     2     3    1
     9     3     4    1
    10     5     4    1
    11     5     6    1
    12     6     7    1
    13     7     9    1
    14     9    10   ar
    15    10    11   ar
    16    11    12   ar
    17    12    15    1
    18    15    16    1
    19    15    17    1
    20    15    18    1
    21    12    13   ar
    22    13    14   ar
    23     5     8    1
    24    24    25   ar
    25    25    26   ar
    26    26    27   ar
    27    27    28    1
    28    28    29    1
    29    29    30    1
    30    30    31    1
    31    31    32   am
    32    32    33    2
    33    32    34    1
    34    27    23   ar
    35    34    28    1
    36     8     2    1
    37     7     5    1
    38    14     9   ar
    39    31    35    1
@<TRIPOS>MOLECULE
*****
 35 39 0 0 0
SMALL
GASTEIGER

@<TRIPOS>ATOM
      1 C          63.1730   85.3573    8.6726 C.3     1  UNL1        0.0730
      2 N          62.1222   86.4079    8.8777 N.3     1  UNL1       -0.2726
      3 C          60.6864   86.3134    8.4539 C.3     1  UNL1        0.0721
      4 C          59.9996   87.5845    8.8570 C.3     1  UNL1        0.0190
      5 C          61.0109   88.4646    9.5299 C.3     1  UNL1        0.0201
      6 C          60.0716   89.6014    9.8043 C.3     1  UNL1        0.0061
      7 C          61.5074   89.6959   10.2281 C.3     1  UNL1        0.0237
      8 C          62.3228   87.7374    9.5427 C.3     1  UNL1        0.0724
      9 C          62.6230   90.4613   10.8758 C.ar    1  UNL1       -0.0225
     10 C          63.4181   91.4497   10.0753 C.ar    1  UNL1       -0.0043
     11 C          64.5337   92.2151   10.7230 C.ar    1  UNL1        0.0035
     12 C          64.8541   91.9921   12.1713 C.ar    1  UNL1        0.0714
     13 C          64.0590   91.0037   12.9719 C.ar    1  UNL1        0.0035
     14 C          62.9434   90.2383   12.3241 C.ar    1  UNL1       -0.0043
     15 C          65.9697   92.7575   12.8191 C.3     1  UNL1        0.4186
     16 F          67.0854   93.5230   13.4668 F       1  UNL1       -0.1659
     17 F          66.2915   91.5665   13.6722 F       1  UNL1       -0.1659
     18 F          65.6479   93.9485   11.9659 F       1  UNL1       -0.1659
     19 C          62.9501   83.9641    9.1818 C.3     1  UNL1        0.0294
     20 C          63.9686   83.3200   10.0751 C.3     1  UNL1        0.0666
     21 S          63.5242   82.4727   11.2303 S.3     1  UNL1       -0.0756
     22 C          62.6061   85.3848   12.3820 C.3     1  UNL1        0.1337
     23 N          63.2879   84.3022   13.1648 N.ar    1  UNL1       -0.2918
     24 C          63.7100   82.9636   12.6355 C.ar    1  UNL1        0.1930
     25 N          64.3504   82.2021   13.7580 N.ar    1  UNL1       -0.1224
     26 N          64.3241   83.0700   14.9811 N.ar    1  UNL1       -0.1328
     27 C          63.6675   84.3679   14.6146 C.ar    1  UNL1        0.1437
     28 C          63.4319   85.5279   15.5360 C.3     1  UNL1        0.0696
     29 C          62.7399   85.3139   16.8495 C.3     1  UNL1        0.0293
     30 C          62.5042   86.4738   17.7709 C.3     1  UNL1        0.0898
     31 N          62.9606   87.8479   17.3786 N.am    1  UNL1       -0.3043
     32 C          63.6526   88.0619   16.0651 C.2     1  UNL1        0.2229
     33 O          64.1089   89.4360   15.6730 O.2     1  UNL1       -0.2751
     34 C          63.8882   86.9019   15.1438 C.3     1  UNL1        0.0926
     35 H          62.8060   88.6092   17.9833 H       1  UNL1        0.1494
@<TRIPOS>BOND
     1    22    23    1
     2    23    24   ar
     3    24    21    1
     4    21    20    1
     5    20    19    1
     6    19     1    1
     7     1     2    1
     8     2     3    1
     9     3     4    1
    10     5     4    1
    11     5     6    1
    12     6     7    1
    13     7     9    1
    14     9    10   ar
    15    10    11   ar
    16    11    12   ar
    17    12    15    1
    18    15    16    1
    19    15    17    1
    20    15    18    1
    21    12    13   ar
    22    13    14   ar
    23     5     8    1
    24    24    25   ar
    25    25    26   ar
    26    26    27   ar
    27    27    28    1
    28    28    29    1
    29    29    30    1
    30    30    31    1
    31    31    32   am
    32    32    33    2
    33    32    34    1
    34    27    23   ar
    35    34    28    1
    36     8     2    1
    37     7     5    1
    38    14     9   ar
    39    31    35    1
@<TRIPOS>MOLECULE
*****
 35 39 0 0 0
SMALL
GASTEIGER

@<TRIPOS>ATOM
      1 C          62.7003   91.1071    9.6796 C.3     1  UNL1        0.0730
      2 N          63.6947   91.5827   10.6970 N.3     1  UNL1       -0.2726
      3 C          64.6460   92.7304   10.5306 C.3     1  UNL1        0.0721
      4 C          65.4515   92.8511   11.7902 C.3     1  UNL1        0.0190
      5 C          64.9980   91.7779   12.7350 C.3     1  UNL1        0.0201
      6 C          65.9395   92.1387   13.8456 C.3     1  UNL1        0.0061
      7 C          64.9882   90.9910   14.0120 C.3     1  UNL1        0.0237
      8 C          63.9122   90.9940   12.0594 C.3     1  UNL1        0.0724
      9 C          64.4332   89.8741   14.8453 C.ar    1  UNL1       -0.0225
     10 C          63.6556   90.1821   16.0905 C.ar    1  UNL1       -0.0043
     11 C          63.1007   89.0652   16.9238 C.ar    1  UNL1        0.0035
     12 C          63.3234   87.6401   16.5119 C.ar    1  UNL1        0.0714
     13 C          64.1010   87.3320   15.2668 C.ar    1  UNL1        0.0035
     14 C          64.6559   88.4490   14.4335 C.ar    1  UNL1       -0.0043
     15 C          62.7684   86.5232   17.3452 C.3     1  UNL1        0.4186
     16 F          62.2135   85.4061   18.1786 F       1  UNL1       -0.1659
     17 F          62.7354   87.4304   18.5393 F       1  UNL1       -0.1659
     18 F          62.8015   85.6159   16.1512 F       1  UNL1       -0.1659
     19 C          61.4823   90.3496   10.1184 C.3     1  UNL1        0.0294
     20 C          60.5419   89.7839    9.0957 C.3     1  UNL1        0.0666
     21 S          60.4238   88.2983    8.9261 S.3     1  UNL1       -0.0756
     22 C          62.4210   85.7511    8.5104 C.3     1  UNL1        0.1337
     23 N          61.8342   86.2081    9.8130 N.ar    1  UNL1       -0.2918
     24 C          60.9162   87.3788   10.0041 C.ar    1  UNL1        0.1930
     25 N          60.5771   87.4688   11.4625 N.ar    1  UNL1       -0.1224
     26 N          61.2855   86.3537   12.1728 N.ar    1  UNL1       -0.1328
     27 C          62.0625   85.5744   11.1534 C.ar    1  UNL1        0.1437
     28 C          62.9176   84.3726   11.4264 C.3     1  UNL1        0.0696
     29 C          63.6996   83.7401   10.3136 C.3     1  UNL1        0.0293
     30 C          64.5547   82.5383   10.5866 C.3     1  UNL1        0.0898
     31 N          64.6276   81.9690   11.9725 N.am    1  UNL1       -0.3043
     32 C          63.8455   82.6015   13.0853 C.2     1  UNL1        0.2229
     33 O          63.9185   82.0321   14.4711 O.2     1  UNL1       -0.2751
     34 C          62.9905   83.8033   12.8122 C.3     1  UNL1        0.0926
     35 H          65.1888   81.1802   12.1517 H       1  UNL1        0.1494
@<TRIPOS>BOND
     1    22    23    1
     2    23    24   ar
     3    24    21    1
     4    21    20    1
     5    20    19    1
     6    19     1    1
     7     1     2    1
     8     2     3    1
     9     3     4    1
    10     5     4    1
    11     5     6    1
    12     6     7    1
    13     7     9    1
    14     9    10   ar
    15    10    11   ar
    16    11    12   ar
    17    12    15    1
    18    15    16    1
    19    15    17    1
    20    15    18    1
    21    12    13   ar
    22    13    14   ar
    23     5     8    1
    24    24    25   ar
    25    25    26   ar
    26    26    27   ar
    27    27    28    1
    28    28    29    1
    29    29    30    1
    30    30    31    1
    31    31    32   am
    32    32    33    2
    33    32    34    1
    34    27    23   ar
    35    34    28    1
    36     8     2    1
    37     7     5    1
    38    14     9   ar
    39    31    35    1
@<TRIPOS>MOLECULE
*****
 35 39 0 0 0
SMALL
GASTEIGER

@<TRIPOS>ATOM
      1 C          63.4987   90.0157   16.5911 C.3     1  UNL1        0.0730
      2 N          64.0315   90.6807   15.3567 N.3     1  UNL1       -0.2726
      3 C          65.0913   91.7414   15.3141 C.3     1  UNL1        0.0721
      4 C          65.3128   92.1179   13.8791 C.3     1  UNL1        0.0190
      5 C          64.3900   91.2899   13.0348 C.3     1  UNL1        0.0201
      6 C          64.8234   91.8646   11.7189 C.3     1  UNL1        0.0061
      7 C          63.7637   90.8039   11.7614 C.3     1  UNL1        0.0237
      8 C          63.5981   90.4016   13.9480 C.3     1  UNL1        0.0724
      9 C          62.7903   89.9109   11.0508 C.ar    1  UNL1       -0.0225
     10 C          61.8545   90.4847   10.0284 C.ar    1  UNL1       -0.0043
     11 C          60.8811   89.5917    9.3178 C.ar    1  UNL1        0.0035
     12 C          60.8434   88.1250    9.6296 C.ar    1  UNL1        0.0714
     13 C          61.7791   87.5512   10.6520 C.ar    1  UNL1        0.0035
     14 C          62.7525   88.4442   11.3626 C.ar    1  UNL1       -0.0043
     15 C          59.8700   87.2320    8.9190 C.3     1  UNL1        0.4186
     16 F          58.8964   86.3390    8.2083 F       1  UNL1       -0.1659
     17 F          60.5032   86.0323    9.5592 F       1  UNL1       -0.1659
     18 F          59.2368   88.4316    8.2788 F       1  UNL1       -0.1659
     19 C          62.8163   88.6838   16.4905 C.3     1  UNL1        0.0294
     20 C          63.0279   87.6500   17.5566 C.3     1  UNL1        0.0666
     21 S          62.8835   86.1936   17.2284 S.3     1  UNL1       -0.0756
     22 C          61.6167   83.9721   15.2011 C.3     1  UNL1        0.1337
     23 N          62.9693   84.6086   15.0776 N.ar    1  UNL1       -0.2918
     24 C          63.5516   85.6297   16.0095 C.ar    1  UNL1        0.1930
     25 N          64.9193   85.9880   15.5085 N.ar    1  UNL1       -0.1224
     26 N          65.1824   85.1884   14.2669 N.ar    1  UNL1       -0.1328
     27 C          63.9772   84.3358   14.0006 C.ar    1  UNL1        0.1437
     28 C          63.8094   83.3786   12.8580 C.3     1  UNL1        0.0696
     29 C          64.1764   83.8005   11.4661 C.3     1  UNL1        0.0293
     30 C          64.0086   82.8432   10.3235 C.3     1  UNL1        0.0898
     31 N          63.4738   81.4641   10.5729 N.am    1  UNL1       -0.3043
     32 C          63.1069   81.0422   11.9648 C.2     1  UNL1        0.2229
     33 O          62.5722   79.6631   12.2141 O.2     1  UNL1       -0.2751
     34 C          63.2747   81.9995   13.1074 C.3     1  UNL1        0.0926
     35 H          63.3637   80.8358    9.8230 H       1  UNL1        0.1494
@<TRIPOS>BOND
     1    22    23    1
     2    23    24   ar
     3    24    21    1
     4    21    20    1
     5    20    19    1
     6    19     1    1
     7     1     2    1
     8     2     3    1
     9     3     4    1
    10     5     4    1
    11     5     6    1
    12     6     7    1
    13     7     9    1
    14     9    10   ar
    15    10    11   ar
    16    11    12   ar
    17    12    15    1
    18    15    16    1
    19    15    17    1
    20    15    18    1
    21    12    13   ar
    22    13    14   ar
    23     5     8    1
    24    24    25   ar
    25    25    26   ar
    26    26    27   ar
    27    27    28    1
    28    28    29    1
    29    29    30    1
    30    30    31    1
    31    31    32   am
    32    32    33    2
    33    32    34    1
    34    27    23   ar
    35    34    28    1
    36     8     2    1
    37     7     5    1
    38    14     9   ar
    39    31    35    1
@<TRIPOS>MOLECULE
*****
 35 39 0 0 0
SMALL
GASTEIGER

@<TRIPOS>ATOM
      1 C          61.5868   90.1754    9.5008 C.3     1  UNL1        0.0730
      2 N          62.6946   90.8118   10.2868 N.3     1  UNL1       -0.2726
      3 C          63.5699   91.9384    9.8236 C.3     1  UNL1        0.0721
      4 C          64.5378   92.2562   10.9245 C.3     1  UNL1        0.0190
      5 C          64.2608   91.3260   12.0682 C.3     1  UNL1        0.0201
      6 C          65.3335   91.8617   12.9694 C.3     1  UNL1        0.0061
      7 C          64.4583   90.7350   13.4327 C.3     1  UNL1        0.0237
      8 C          63.1216   90.4333   11.6741 C.3     1  UNL1        0.0724
      9 C          64.0670   89.7434   14.4879 C.ar    1  UNL1       -0.0225
     10 C          64.3459   88.2835   14.2855 C.ar    1  UNL1       -0.0043
     11 C          63.9546   87.2918   15.3407 C.ar    1  UNL1        0.0035
     12 C          63.2843   87.7601   16.5983 C.ar    1  UNL1        0.0714
     13 C          63.0054   89.2200   16.8006 C.ar    1  UNL1        0.0035
     14 C          63.3967   90.2116   15.7454 C.ar    1  UNL1       -0.0043
     15 C          62.8930   86.7684   17.6535 C.3     1  UNL1        0.4186
     16 F          62.5017   85.7767   18.7087 F       1  UNL1       -0.1659
     17 F          63.0187   87.8341   18.7016 F       1  UNL1       -0.1659
     18 F          62.7673   85.7028   16.6054 F       1  UNL1       -0.1659
     19 C          60.6321   89.2358   10.1759 C.3     1  UNL1        0.0294
     20 C          60.2978   87.9198    9.5384 C.3     1  UNL1        0.0666
     21 S          61.3188   87.2135    8.6966 S.3     1  UNL1       -0.0756
     22 C          61.2323   86.1801   11.7908 C.3     1  UNL1        0.1337
     23 N          62.0371   85.5723   10.6804 N.ar    1  UNL1       -0.2918
     24 C          62.0768   86.0473    9.2582 C.ar    1  UNL1        0.1930
     25 N          63.0077   85.1514    8.4961 N.ar    1  UNL1       -0.1224
     26 N          63.5433   84.1227    9.4474 N.ar    1  UNL1       -0.1328
     27 C          62.9434   84.3828   10.7974 C.ar    1  UNL1        0.1437
     28 C          63.2041   83.5922   12.0452 C.3     1  UNL1        0.0696
     29 C          64.0445   84.1768   13.1416 C.3     1  UNL1        0.0293
     30 C          64.3052   83.3862   14.3894 C.3     1  UNL1        0.0898
     31 N          63.7254   82.0110   14.5408 N.am    1  UNL1       -0.3043
     32 C          62.8850   81.4265   13.4444 C.2     1  UNL1        0.2229
     33 O          62.3053   80.0513   13.5959 O.2     1  UNL1       -0.2751
     34 C          62.6244   82.2171   12.1966 C.3     1  UNL1        0.0926
     35 H          63.8965   81.4921   15.3598 H       1  UNL1        0.1494
@<TRIPOS>BOND
     1    22    23    1
     2    23    24   ar
     3    24    21    1
     4    21    20    1
     5    20    19    1
     6    19     1    1
     7     1     2    1
     8     2     3    1
     9     3     4    1
    10     5     4    1
    11     5     6    1
    12     6     7    1
    13     7     9    1
    14     9    10   ar
    15    10    11   ar
    16    11    12   ar
    17    12    15    1
    18    15    16    1
    19    15    17    1
    20    15    18    1
    21    12    13   ar
    22    13    14   ar
    23     5     8    1
    24    24    25   ar
    25    25    26   ar
    26    26    27   ar
    27    27    28    1
    28    28    29    1
    29    29    30    1
    30    30    31    1
    31    31    32   am
    32    32    33    2
    33    32    34    1
    34    27    23   ar
    35    34    28    1
    36     8     2    1
    37     7     5    1
    38    14     9   ar
    39    31    35    1
