@<TRIPOS>MOLECULE
*****
 32 36 0 0 0
SMALL
GASTEIGER

@<TRIPOS>ATOM
      1 C          59.3631   90.6317    5.5906 C.ar    1  UNL1        0.1247
      2 N          60.8146   90.5626    5.2186 N.ar    1  UNL1       -0.2277
      3 C          61.0348   91.4652    4.0410 C.ar    1  UNL1        0.1329
      4 C          59.7194   92.0921    3.6851 C.ar    1  UNL1        0.0592
      5 N          58.6862   91.5770    4.6428 N.ar    1  UNL1       -0.3159
      6 C          57.2316   91.9428    4.6514 C.3     1  UNL1        0.1313
      7 C          59.4143   93.0657    2.5856 C.3     1  UNL1        0.0502
      8 C          60.3494   93.6529    1.5703 C.3     1  UNL1        0.0327
      9 C          61.8205   93.4115    1.4038 C.ar    1  UNL1       -0.0187
     10 C          62.3792   94.2016    0.2577 C.ar    1  UNL1       -0.0042
     11 C          63.8372   94.1035   -0.0807 C.ar    1  UNL1       -0.0002
     12 C          64.7365   93.2153    0.7270 C.ar    1  UNL1        0.0001
     13 C          64.1778   92.4252    1.8731 C.ar    1  UNL1        0.0029
     14 C          62.7198   92.5233    2.2114 C.ar    1  UNL1        0.0366
     15 C          62.3701   91.6571    3.3851 C.2     1  UNL1        0.2139
     16 O          63.5059   90.8801    3.9818 O.2     1  UNL1       -0.2849
     17 C          64.3960   94.8936   -1.2268 C.ar    1  UNL1        0.0027
     18 C          65.2945   96.0653   -0.9625 C.ar    1  UNL1        0.0207
     19 C          65.8533   96.8555   -2.1085 C.ar    1  UNL1        0.0984
     20 N          65.5136   96.4739   -3.5189 N.ar    1  UNL1       -0.2481
     21 C          64.6151   95.3022   -3.7832 C.ar    1  UNL1        0.0594
     22 C          64.2754   94.9206   -5.1935 C.3     1  UNL1        0.0521
     23 C          64.0563   94.5120   -2.6371 C.ar    1  UNL1        0.0147
     24 C          58.7043   89.8863    6.7133 C.3     1  UNL1        0.0902
     25 C          61.0246   86.8120    9.0403 C.ar    1  UNL1        0.1387
     26 C          60.1662   86.3879    7.8856 C.ar    1  UNL1        0.0366
     27 C          59.3928   87.4127    7.1099 C.ar    1  UNL1       -0.0007
     28 C          59.4777   88.8615    7.4889 C.ar    1  UNL1       -0.0145
     29 C          60.3361   89.2857    8.6437 C.ar    1  UNL1       -0.0007
     30 C          61.1095   88.2609    9.4194 C.ar    1  UNL1        0.0366
     31 C          61.9204   85.9097   11.3060 C.3     1  UNL1        0.2525
     32 O          61.7980   85.7873    9.8160 O.3     1  UNL1       -0.4714
@<TRIPOS>BOND
     1    31    32    1
     2    32    25    1
     3    25    26   ar
     4    26    27   ar
     5    27    28   ar
     6    28    24    1
     7    24     1    1
     8     1     2   ar
     9     2     3   ar
    10     3     4   ar
    11     4     5   ar
    12     5     6    1
    13     4     7    1
    14     7     8    1
    15     8     9    1
    16     9    10   ar
    17    10    11   ar
    18    11    17    1
    19    17    18   ar
    20    18    19   ar
    21    19    20   ar
    22    20    21   ar
    23    21    22    1
    24    21    23   ar
    25    11    12   ar
    26    12    13   ar
    27    13    14   ar
    28    14    15    1
    29    15    16    2
    30    28    29   ar
    31    29    30   ar
    32    30    25   ar
    33     5     1   ar
    34    14     9   ar
    35    15     3    1
    36    23    17   ar
@<TRIPOS>MOLECULE
*****
 32 36 0 0 0
SMALL
GASTEIGER

@<TRIPOS>ATOM
      1 C          64.5666   91.2290   13.0532 C.ar    1  UNL1        0.1247
      2 N          64.9071   90.1711   14.0607 N.ar    1  UNL1       -0.2277
      3 C          64.2651   88.8887   13.6213 C.ar    1  UNL1        0.1329
      4 C          63.5278   89.1539   12.3422 C.ar    1  UNL1        0.0592
      5 N          63.7141   90.6002   11.9911 N.ar    1  UNL1       -0.3159
      6 C          63.1476   91.2959   10.7890 C.3     1  UNL1        0.1313
      7 C          62.7276   88.1977   11.5083 C.3     1  UNL1        0.0502
      8 C          62.4671   86.7400   11.7477 C.3     1  UNL1        0.0327
      9 C          62.9423   85.8785   12.8799 C.ar    1  UNL1       -0.0187
     10 C          62.4529   84.4677   12.7380 C.ar    1  UNL1       -0.0042
     11 C          62.8168   83.4404   13.7687 C.ar    1  UNL1       -0.0002
     12 C          63.6700   83.8239   14.9412 C.ar    1  UNL1        0.0001
     13 C          64.1594   85.2347   15.0832 C.ar    1  UNL1        0.0029
     14 C          63.7956   86.2620   14.0525 C.ar    1  UNL1        0.0366
     15 C          64.3842   87.6016   14.3824 C.2     1  UNL1        0.2139
     16 O          65.1999   87.6623   15.6398 O.2     1  UNL1       -0.2849
     17 C          62.3274   82.0296   13.6268 C.ar    1  UNL1        0.0027
     18 C          63.2035   80.9924   12.9892 C.ar    1  UNL1        0.0207
     19 C          62.7142   79.5816   12.8472 C.ar    1  UNL1        0.0984
     20 N          61.3486   79.2080   13.3430 N.ar    1  UNL1       -0.2481
     21 C          60.4725   80.2451   13.9806 C.ar    1  UNL1        0.0594
     22 C          59.1070   79.8716   14.4763 C.3     1  UNL1        0.0521
     23 C          60.9619   81.6560   14.1225 C.ar    1  UNL1        0.0147
     24 C          65.0022   92.6636   13.0997 C.3     1  UNL1        0.0902
     25 C          67.2763   94.4380    9.6458 C.ar    1  UNL1        0.1387
     26 C          67.2771   92.9534    9.8608 C.ar    1  UNL1        0.0366
     27 C          66.5191   92.3620   11.0121 C.ar    1  UNL1       -0.0007
     28 C          65.7602   93.2550   11.9484 C.ar    1  UNL1       -0.0145
     29 C          65.7594   94.7396   11.7334 C.ar    1  UNL1       -0.0007
     30 C          66.5175   95.3310   10.5821 C.ar    1  UNL1        0.0366
     31 C          67.6639   96.3850    7.9697 C.3     1  UNL1        0.2525
     32 O          68.0344   95.0294    8.4945 O.3     1  UNL1       -0.4714
@<TRIPOS>BOND
     1    31    32    1
     2    32    25    1
     3    25    26   ar
     4    26    27   ar
     5    27    28   ar
     6    28    24    1
     7    24     1    1
     8     1     2   ar
     9     2     3   ar
    10     3     4   ar
    11     4     5   ar
    12     5     6    1
    13     4     7    1
    14     7     8    1
    15     8     9    1
    16     9    10   ar
    17    10    11   ar
    18    11    17    1
    19    17    18   ar
    20    18    19   ar
    21    19    20   ar
    22    20    21   ar
    23    21    22    1
    24    21    23   ar
    25    11    12   ar
    26    12    13   ar
    27    13    14   ar
    28    14    15    1
    29    15    16    2
    30    28    29   ar
    31    29    30   ar
    32    30    25   ar
    33     5     1   ar
    34    14     9   ar
    35    15     3    1
    36    23    17   ar
@<TRIPOS>MOLECULE
*****
 32 36 0 0 0
SMALL
GASTEIGER

@<TRIPOS>ATOM
      1 C          62.6788   94.5882   -0.2208 C.ar    1  UNL1        0.1247
      2 N          61.3323   94.4208    0.4188 N.ar    1  UNL1       -0.2277
      3 C          61.4747   93.4470    1.5507 C.ar    1  UNL1        0.1329
      4 C          62.9092   93.0125    1.6107 C.ar    1  UNL1        0.0592
      5 N          63.6533   93.7178    0.5158 N.ar    1  UNL1       -0.3159
      6 C          65.1152   93.5774    0.2110 C.3     1  UNL1        0.1313
      7 C          63.5563   92.0513    2.5634 C.3     1  UNL1        0.0502
      8 C          62.9286   91.2874    3.6914 C.3     1  UNL1        0.0327
      9 C          61.4990   91.2958    4.1454 C.ar    1  UNL1       -0.0187
     10 C          61.2908   90.3830    5.3173 C.ar    1  UNL1       -0.0042
     11 C          59.9274   90.2446    5.9272 C.ar    1  UNL1       -0.0002
     12 C          58.7723   91.0191    5.3653 C.ar    1  UNL1        0.0001
     13 C          58.9805   91.9319    4.1934 C.ar    1  UNL1        0.0029
     14 C          60.3438   92.0702    3.5834 C.ar    1  UNL1        0.0366
     15 C          60.3331   93.0276    2.4287 C.2     1  UNL1        0.2139
     16 O          59.0050   93.6476    2.1098 O.2     1  UNL1       -0.2849
     17 C          59.7192   89.3318    7.0992 C.ar    1  UNL1        0.0027
     18 C          59.0902   87.9849    6.8983 C.ar    1  UNL1        0.0207
     19 C          58.8820   87.0721    8.0702 C.ar    1  UNL1        0.0984
     20 N          59.3026   87.5062    9.4430 N.ar    1  UNL1       -0.2481
     21 C          59.9315   88.8530    9.6440 C.ar    1  UNL1        0.0594
     22 C          60.3522   89.2871   11.0167 C.3     1  UNL1        0.0521
     23 C          60.1398   89.7659    8.4720 C.ar    1  UNL1        0.0147
     24 C          62.9950   95.4710   -1.3916 C.3     1  UNL1        0.0902
     25 C          64.6668   93.6862   -5.1690 C.ar    1  UNL1        0.1387
     26 C          63.7666   92.8708   -4.2887 C.ar    1  UNL1        0.0366
     27 C          63.2094   93.4658   -3.0296 C.ar    1  UNL1       -0.0007
     28 C          63.5522   94.8761   -2.6507 C.ar    1  UNL1       -0.0145
     29 C          64.4524   95.6915   -3.5310 C.ar    1  UNL1       -0.0007
     30 C          65.0096   95.0965   -4.7902 C.ar    1  UNL1        0.0366
     31 C          65.2286   91.6031   -6.6165 C.3     1  UNL1        0.2525
     32 O          65.2240   93.0912   -6.4282 O.3     1  UNL1       -0.4714
@<TRIPOS>BOND
     1    31    32    1
     2    32    25    1
     3    25    26   ar
     4    26    27   ar
     5    27    28   ar
     6    28    24    1
     7    24     1    1
     8     1     2   ar
     9     2     3   ar
    10     3     4   ar
    11     4     5   ar
    12     5     6    1
    13     4     7    1
    14     7     8    1
    15     8     9    1
    16     9    10   ar
    17    10    11   ar
    18    11    17    1
    19    17    18   ar
    20    18    19   ar
    21    19    20   ar
    22    20    21   ar
    23    21    22    1
    24    21    23   ar
    25    11    12   ar
    26    12    13   ar
    27    13    14   ar
    28    14    15    1
    29    15    16    2
    30    28    29   ar
    31    29    30   ar
    32    30    25   ar
    33     5     1   ar
    34    14     9   ar
    35    15     3    1
    36    23    17   ar
@<TRIPOS>MOLECULE
*****
 32 36 0 0 0
SMALL
GASTEIGER

@<TRIPOS>ATOM
      1 C          63.8495   90.3401   13.2992 C.ar    1  UNL1        0.1247
      2 N          64.3339   89.1889   14.1299 N.ar    1  UNL1       -0.2277
      3 C          63.8743   87.9196   13.4760 C.ar    1  UNL1        0.1329
      4 C          63.1058   88.2863   12.2411 C.ar    1  UNL1        0.0592
      5 N          63.0905   89.7822   12.1318 N.ar    1  UNL1       -0.3159
      6 C          62.4319   90.5803   11.0459 C.3     1  UNL1        0.1313
      7 C          62.4441   87.3784   11.2472 C.3     1  UNL1        0.0502
      8 C          62.3874   85.8795   11.2428 C.3     1  UNL1        0.0327
      9 C          62.9784   84.9182   12.2311 C.ar    1  UNL1       -0.0187
     10 C          62.6881   83.4960   11.8532 C.ar    1  UNL1       -0.0042
     11 C          63.1914   82.3741   12.7122 C.ar    1  UNL1       -0.0002
     12 C          63.9851   82.6744   13.9491 C.ar    1  UNL1        0.0001
     13 C          64.2754   84.0967   14.3270 C.ar    1  UNL1        0.0029
     14 C          63.7721   85.2186   13.4680 C.ar    1  UNL1        0.0366
     15 C          64.1708   86.5543   14.0220 C.2     1  UNL1        0.2139
     16 O          64.9719   86.5202   15.2897 O.2     1  UNL1       -0.2849
     17 C          62.9011   80.9517   12.3343 C.ar    1  UNL1        0.0027
     18 C          62.4023   79.9876   13.3695 C.ar    1  UNL1        0.0207
     19 C          62.1120   78.5653   12.9917 C.ar    1  UNL1        0.0984
     20 N          62.3204   78.1071   11.5787 N.ar    1  UNL1       -0.2481
     21 C          62.8192   79.0713   10.5435 C.ar    1  UNL1        0.0594
     22 C          63.0276   78.6131    9.1305 C.3     1  UNL1        0.0521
     23 C          63.1095   80.4936   10.9213 C.ar    1  UNL1        0.0147
     24 C          64.0831   91.7938   13.5857 C.3     1  UNL1        0.0902
     25 C          67.9594   93.1269   15.4423 C.ar    1  UNL1        0.1387
     26 C          66.7916   92.7748   16.3155 C.ar    1  UNL1        0.0366
     27 C          65.4995   92.3304   15.6965 C.ar    1  UNL1       -0.0007
     28 C          65.3752   92.2382   14.2046 C.ar    1  UNL1       -0.0145
     29 C          66.5430   92.5902   13.3314 C.ar    1  UNL1       -0.0007
     30 C          67.8351   93.0346   13.9503 C.ar    1  UNL1        0.0366
     31 C          69.5298   95.0333   16.2482 C.3     1  UNL1        0.2525
     32 O          69.2515   93.5712   16.0612 O.3     1  UNL1       -0.4714
@<TRIPOS>BOND
     1    31    32    1
     2    32    25    1
     3    25    26   ar
     4    26    27   ar
     5    27    28   ar
     6    28    24    1
     7    24     1    1
     8     1     2   ar
     9     2     3   ar
    10     3     4   ar
    11     4     5   ar
    12     5     6    1
    13     4     7    1
    14     7     8    1
    15     8     9    1
    16     9    10   ar
    17    10    11   ar
    18    11    17    1
    19    17    18   ar
    20    18    19   ar
    21    19    20   ar
    22    20    21   ar
    23    21    22    1
    24    21    23   ar
    25    11    12   ar
    26    12    13   ar
    27    13    14   ar
    28    14    15    1
    29    15    16    2
    30    28    29   ar
    31    29    30   ar
    32    30    25   ar
    33     5     1   ar
    34    14     9   ar
    35    15     3    1
    36    23    17   ar
@<TRIPOS>MOLECULE
*****
 32 36 0 0 0
SMALL
GASTEIGER

@<TRIPOS>ATOM
      1 C          63.6747   90.5341   12.7978 C.ar    1  UNL1        0.1247
      2 N          64.2021   89.4405   13.6787 N.ar    1  UNL1       -0.2277
      3 C          63.7501   88.1283   13.1098 C.ar    1  UNL1        0.1329
      4 C          62.9433   88.4108   11.8772 C.ar    1  UNL1        0.0592
      5 N          62.8967   89.8976   11.6844 N.ar    1  UNL1       -0.3159
      6 C          62.1953   90.6211   10.5733 C.3     1  UNL1        0.1313
      7 C          62.2736   87.4365   10.9540 C.3     1  UNL1        0.0502
      8 C          62.2454   85.9390   11.0355 C.3     1  UNL1        0.0327
      9 C          62.8798   85.0459   12.0602 C.ar    1  UNL1       -0.0187
     10 C          62.6069   83.5996   11.7708 C.ar    1  UNL1       -0.0042
     11 C          63.1534   82.5373   12.6778 C.ar    1  UNL1       -0.0002
     12 C          63.9728   82.9212   13.8742 C.ar    1  UNL1        0.0001
     13 C          64.2456   84.3675   14.1635 C.ar    1  UNL1        0.0029
     14 C          63.6991   85.4298   13.2565 C.ar    1  UNL1        0.0366
     15 C          64.0864   86.8016   13.7236 C.2     1  UNL1        0.2139
     16 O          64.9204   86.8536   14.9693 O.2     1  UNL1       -0.2849
     17 C          62.8806   81.0909   12.3885 C.ar    1  UNL1        0.0027
     18 C          62.4798   80.1664   13.4996 C.ar    1  UNL1        0.0207
     19 C          62.2070   78.7201   13.2104 C.ar    1  UNL1        0.0984
     20 N          62.3349   78.1982   11.8098 N.ar    1  UNL1       -0.2481
     21 C          62.7357   79.1227   10.6987 C.ar    1  UNL1        0.0594
     22 C          62.8637   78.6009    9.2982 C.3     1  UNL1        0.0521
     23 C          63.0086   80.5691   10.9880 C.ar    1  UNL1        0.0147
     24 C          63.8879   92.0056   12.9957 C.3     1  UNL1        0.0902
     25 C          66.9857   94.1781   10.5598 C.ar    1  UNL1        0.1387
     26 C          67.1479   94.0601   12.0463 C.ar    1  UNL1        0.0366
     27 C          66.1152   93.3359   12.8582 C.ar    1  UNL1       -0.0007
     28 C          64.9205   92.7297   12.1837 C.ar    1  UNL1       -0.0145
     29 C          64.7582   92.8477   10.6972 C.ar    1  UNL1       -0.0007
     30 C          65.7908   93.5719    9.8852 C.ar    1  UNL1        0.0366
     31 C          67.7157   95.3021    8.3340 C.3     1  UNL1        0.2525
     32 O          68.0183   94.9023    9.7478 O.3     1  UNL1       -0.4714
@<TRIPOS>BOND
     1    31    32    1
     2    32    25    1
     3    25    26   ar
     4    26    27   ar
     5    27    28   ar
     6    28    24    1
     7    24     1    1
     8     1     2   ar
     9     2     3   ar
    10     3     4   ar
    11     4     5   ar
    12     5     6    1
    13     4     7    1
    14     7     8    1
    15     8     9    1
    16     9    10   ar
    17    10    11   ar
    18    11    17    1
    19    17    18   ar
    20    18    19   ar
    21    19    20   ar
    22    20    21   ar
    23    21    22    1
    24    21    23   ar
    25    11    12   ar
    26    12    13   ar
    27    13    14   ar
    28    14    15    1
    29    15    16    2
    30    28    29   ar
    31    29    30   ar
    32    30    25   ar
    33     5     1   ar
    34    14     9   ar
    35    15     3    1
    36    23    17   ar
@<TRIPOS>MOLECULE
*****
 32 36 0 0 0
SMALL
GASTEIGER

@<TRIPOS>ATOM
      1 C          62.7626   85.7345   13.8552 C.ar    1  UNL1        0.1247
      2 N          63.6128   86.7691   14.5311 N.ar    1  UNL1       -0.2277
      3 C          63.7660   87.9288   13.5921 C.ar    1  UNL1        0.1329
      4 C          63.0104   87.6109   12.3359 C.ar    1  UNL1        0.0592
      5 N          62.3903   86.2548   12.4985 N.ar    1  UNL1       -0.3159
      6 C          61.5462   85.5438   11.4828 C.3     1  UNL1        0.1313
      7 C          62.8571   88.4468   11.0998 C.3     1  UNL1        0.0502
      8 C          63.4216   89.8070   10.8147 C.3     1  UNL1        0.0327
      9 C          64.2787   90.6673   11.6952 C.ar    1  UNL1       -0.0187
     10 C          64.6276   91.9624   11.0238 C.ar    1  UNL1       -0.0042
     11 C          65.4808   92.9701   11.7354 C.ar    1  UNL1       -0.0002
     12 C          65.9852   92.6826   13.1186 C.ar    1  UNL1        0.0001
     13 C          65.6363   91.3875   13.7900 C.ar    1  UNL1        0.0029
     14 C          64.7831   90.3798   13.0783 C.ar    1  UNL1        0.0366
     15 C          64.5549   89.1611   13.9225 C.2     1  UNL1        0.2139
     16 O          65.2010   89.1767   15.2761 O.2     1  UNL1       -0.2849
     17 C          65.8297   94.2653   11.0640 C.ar    1  UNL1        0.0027
     18 C          65.8368   95.5410   11.8530 C.ar    1  UNL1        0.0207
     19 C          66.1857   96.8362   11.1817 C.ar    1  UNL1        0.0984
     20 N          66.5276   96.8557    9.7212 N.ar    1  UNL1       -0.2481
     21 C          66.5205   95.5800    8.9322 C.ar    1  UNL1        0.0594
     22 C          66.8624   95.5994    7.4719 C.3     1  UNL1        0.0521
     23 C          66.1716   94.2848    9.6037 C.ar    1  UNL1        0.0147
     24 C          62.3562   84.4120   14.4344 C.3     1  UNL1        0.0902
     25 C          62.7825   80.6581   11.9896 C.ar    1  UNL1        0.1387
     26 C          61.9929   80.6370   13.2649 C.ar    1  UNL1        0.0366
     27 C          61.8509   81.8883   14.0797 C.ar    1  UNL1       -0.0007
     28 C          62.4983   83.1607   13.6195 C.ar    1  UNL1       -0.0145
     29 C          63.2879   83.1818   12.3443 C.ar    1  UNL1       -0.0007
     30 C          63.4300   81.9305   11.5294 C.ar    1  UNL1        0.0366
     31 C          62.7883   79.4645    9.6820 C.3     1  UNL1        0.2525
     32 O          62.9246   79.4069   11.1747 O.3     1  UNL1       -0.4714
@<TRIPOS>BOND
     1    31    32    1
     2    32    25    1
     3    25    26   ar
     4    26    27   ar
     5    27    28   ar
     6    28    24    1
     7    24     1    1
     8     1     2   ar
     9     2     3   ar
    10     3     4   ar
    11     4     5   ar
    12     5     6    1
    13     4     7    1
    14     7     8    1
    15     8     9    1
    16     9    10   ar
    17    10    11   ar
    18    11    17    1
    19    17    18   ar
    20    18    19   ar
    21    19    20   ar
    22    20    21   ar
    23    21    22    1
    24    21    23   ar
    25    11    12   ar
    26    12    13   ar
    27    13    14   ar
    28    14    15    1
    29    15    16    2
    30    28    29   ar
    31    29    30   ar
    32    30    25   ar
    33     5     1   ar
    34    14     9   ar
    35    15     3    1
    36    23    17   ar
@<TRIPOS>MOLECULE
*****
 32 36 0 0 0
SMALL
GASTEIGER

@<TRIPOS>ATOM
      1 C          62.5855   94.6739   -0.2866 C.ar    1  UNL1        0.1247
      2 N          61.2499   94.5035    0.3746 N.ar    1  UNL1       -0.2277
      3 C          61.4096   93.5197    1.4955 C.ar    1  UNL1        0.1329
      4 C          62.8440   93.0819    1.5271 C.ar    1  UNL1        0.0592
      5 N          63.5707   93.7952    0.4257 N.ar    1  UNL1       -0.3159
      6 C          65.0269   93.6547    0.0947 C.3     1  UNL1        0.1313
      7 C          63.5053   92.1113    2.4601 C.3     1  UNL1        0.0502
      8 C          62.8955   91.3387    3.5921 C.3     1  UNL1        0.0327
      9 C          61.4739   91.3459    4.0706 C.ar    1  UNL1       -0.0187
     10 C          61.2839   90.4234    5.2380 C.ar    1  UNL1       -0.0042
     11 C          59.9309   90.2824    5.8700 C.ar    1  UNL1       -0.0002
     12 C          58.7679   91.0640    5.3347 C.ar    1  UNL1        0.0001
     13 C          58.9579   91.9866    4.1673 C.ar    1  UNL1        0.0029
     14 C          60.3109   92.1275    3.5353 C.ar    1  UNL1        0.0366
     15 C          60.2823   93.0949    2.3892 C.2     1  UNL1        0.2139
     16 O          58.9502   93.7202    2.0985 O.2     1  UNL1       -0.2849
     17 C          59.7408   89.3599    7.0374 C.ar    1  UNL1        0.0027
     18 C          59.1733   87.9878    6.8244 C.ar    1  UNL1        0.0207
     19 C          58.9832   87.0652    7.9917 C.ar    1  UNL1        0.0984
     20 N          59.3607   87.5147    9.3722 N.ar    1  UNL1       -0.2481
     21 C          59.9282   88.8868    9.5852 C.ar    1  UNL1        0.0594
     22 C          60.3056   89.3363   10.9656 C.3     1  UNL1        0.0521
     23 C          60.1182   89.8094    8.4178 C.ar    1  UNL1        0.0147
     24 C          62.8834   95.5662   -1.4548 C.3     1  UNL1        0.0902
     25 C          60.4102   95.2681   -5.2024 C.ar    1  UNL1        0.1387
     26 C          59.8872   96.0235   -4.0167 C.ar    1  UNL1        0.0366
     27 C          60.7116   96.1229   -2.7676 C.ar    1  UNL1       -0.0007
     28 C          62.0590   95.4669   -2.7040 C.ar    1  UNL1       -0.0145
     29 C          62.5821   94.7115   -3.8897 C.ar    1  UNL1       -0.0007
     30 C          61.7577   94.6121   -5.1389 C.ar    1  UNL1        0.0366
     31 C          59.9897   94.2228   -7.5435 C.3     1  UNL1        0.2525
     32 O          59.5858   95.1688   -6.4516 O.3     1  UNL1       -0.4714
@<TRIPOS>BOND
     1    31    32    1
     2    32    25    1
     3    25    26   ar
     4    26    27   ar
     5    27    28   ar
     6    28    24    1
     7    24     1    1
     8     1     2   ar
     9     2     3   ar
    10     3     4   ar
    11     4     5   ar
    12     5     6    1
    13     4     7    1
    14     7     8    1
    15     8     9    1
    16     9    10   ar
    17    10    11   ar
    18    11    17    1
    19    17    18   ar
    20    18    19   ar
    21    19    20   ar
    22    20    21   ar
    23    21    22    1
    24    21    23   ar
    25    11    12   ar
    26    12    13   ar
    27    13    14   ar
    28    14    15    1
    29    15    16    2
    30    28    29   ar
    31    29    30   ar
    32    30    25   ar
    33     5     1   ar
    34    14     9   ar
    35    15     3    1
    36    23    17   ar
