@<TRIPOS>MOLECULE
*****
 32 36 0 0 0
SMALL
GASTEIGER

@<TRIPOS>ATOM
      1 C          62.7833   86.8192   11.9257 C.2     1  UNL1        0.2506
      2 O          63.5843   87.4285   13.0378 O.2     1  UNL1       -0.2699
      3 N          61.8114   87.6609   11.1530 N.am    1  UNL1       -0.2723
      4 C          61.0103   87.0515   10.0408 C.3     1  UNL1        0.1257
      5 C          60.0385   87.8933    9.2682 C.3     1  UNL1        0.1637
      6 O          59.8677   89.3443    9.6078 O.3     1  UNL1       -0.3502
      7 C          60.6687   89.9536   10.7199 C.3     1  UNL1        0.1622
      8 C          61.6406   89.1119   11.4926 C.3     1  UNL1        0.1096
      9 C          63.4666   81.0150   10.5673 C.3     1  UNL1        0.0311
     10 C          63.2958   82.4660   10.9069 C.ar    1  UNL1       -0.0203
     11 C          63.1601   83.4817    9.8115 C.ar    1  UNL1       -0.0040
     12 C          62.9893   84.9328   10.1511 C.ar    1  UNL1        0.0058
     13 C          62.9541   85.3681   11.5861 C.ar    1  UNL1        0.0729
     14 C          63.0898   84.3524   12.6815 C.ar    1  UNL1        0.1069
     15 C          63.2606   82.9014   12.3419 C.ar    1  UNL1        0.0168
     16 N          63.0547   84.7878   14.1165 N.ar    1  UNL1       -0.1477
     17 N          64.2182   85.3042   14.9099 N.ar    1  UNL1       -0.1447
     18 C          63.7326   85.6187   16.2938 C.ar    1  UNL1        0.1446
     19 C          62.2688   85.2966   16.3557 C.ar    1  UNL1        0.1446
     20 N          61.8499   84.7830   15.0101 N.ar    1  UNL1       -0.1447
     21 C          62.4417   89.7212   12.6048 C.3     1  UNL1        0.0488
     22 C          63.5514   90.6805   12.2915 C.ar    1  UNL1       -0.0189
     23 C          63.6442   91.3009   10.9290 C.ar    1  UNL1       -0.0041
     24 C          64.7540   92.2601   10.6157 C.ar    1  UNL1        0.0012
     25 C          65.7710   92.5990   11.6648 C.ar    1  UNL1        0.0191
     26 C          65.6782   91.9787   13.0273 C.ar    1  UNL1        0.0825
     27 C          64.5684   91.0194   13.3407 C.ar    1  UNL1        0.0149
     28 N          66.6953   92.3175   14.0766 N.ar    1  UNL1       -0.2282
     29 C          66.4035   92.6833   15.5018 C.ar    1  UNL1        0.1020
     30 C          67.7105   92.9419   16.1908 C.ar    1  UNL1        0.0431
     31 C          68.8101   92.7361   15.1915 C.ar    1  UNL1        0.1221
     32 N          68.1826   92.3502   13.8849 N.ar    1  UNL1       -0.1635
@<TRIPOS>BOND
     1     9    10    1
     2    10    11   ar
     3    11    12   ar
     4    12    13   ar
     5    13     1    1
     6     1     2    2
     7     1     3   am
     8     3     4    1
     9     4     5    1
    10     5     6    1
    11     6     7    1
    12     7     8    1
    13     8    21    1
    14    21    22    1
    15    22    23   ar
    16    23    24   ar
    17    24    25   ar
    18    25    26   ar
    19    26    28    1
    20    28    29   ar
    21    29    30   ar
    22    30    31   ar
    23    31    32   ar
    24    26    27   ar
    25    13    14   ar
    26    14    16    1
    27    16    17   ar
    28    17    18   ar
    29    18    19   ar
    30    19    20   ar
    31    14    15   ar
    32    15    10   ar
    33     8     3    1
    34    27    22   ar
    35    20    16   ar
    36    32    28   ar
@<TRIPOS>MOLECULE
*****
 32 36 0 0 0
SMALL
GASTEIGER

@<TRIPOS>ATOM
      1 C          63.0636   87.1068   12.4123 C.2     1  UNL1        0.2506
      2 O          63.6484   87.5043   13.7351 O.2     1  UNL1       -0.2699
      3 N          62.4166   88.1394   11.5377 N.am    1  UNL1       -0.2723
      4 C          61.8318   87.7419   10.2147 C.3     1  UNL1        0.1257
      5 C          61.1847   88.7746    9.3401 C.3     1  UNL1        0.1637
      6 O          61.1224   90.2047    9.7884 O.3     1  UNL1       -0.3502
      7 C          61.7072   90.6021   11.1112 C.3     1  UNL1        0.1622
      8 C          62.3543   89.5695   11.9859 C.3     1  UNL1        0.1096
      9 C          63.3128   81.3864   10.6192 C.3     1  UNL1        0.0311
     10 C          63.2505   82.8165   11.0675 C.ar    1  UNL1       -0.0203
     11 C          63.2256   83.9203   10.0522 C.ar    1  UNL1       -0.0040
     12 C          63.1633   85.3504   10.5004 C.ar    1  UNL1        0.0058
     13 C          63.1259   85.6767   11.9640 C.ar    1  UNL1        0.0729
     14 C          63.1509   84.5729   12.9793 C.ar    1  UNL1        0.1069
     15 C          63.2132   83.1428   12.5310 C.ar    1  UNL1        0.0168
     16 N          63.1136   84.8991   14.4430 N.ar    1  UNL1       -0.1477
     17 N          61.8948   84.8905   15.3174 N.ar    1  UNL1       -0.1447
     18 C          62.3164   85.2773   16.7040 C.ar    1  UNL1        0.1446
     19 C          63.7958   85.5249   16.6865 C.ar    1  UNL1        0.1446
     20 N          64.2884   85.2912   15.2891 N.ar    1  UNL1       -0.1447
     21 C          62.9391   89.9670   13.3088 C.3     1  UNL1        0.0488
     22 C          64.2506   90.6929   13.3613 C.ar    1  UNL1       -0.0189
     23 C          65.1464   90.5379   14.5544 C.ar    1  UNL1       -0.0041
     24 C          66.4580   91.2639   14.6069 C.ar    1  UNL1        0.0012
     25 C          66.8738   92.1449   13.4664 C.ar    1  UNL1        0.0191
     26 C          65.9780   92.2999   12.2733 C.ar    1  UNL1        0.0825
     27 C          64.6664   91.5739   12.2208 C.ar    1  UNL1        0.0149
     28 N          66.3938   93.1809   11.1326 N.ar    1  UNL1       -0.2282
     29 C          65.7182   94.4511   10.7080 C.ar    1  UNL1        0.1020
     30 C          66.4650   95.0016    9.5293 C.ar    1  UNL1        0.0431
     31 C          67.6022   94.0716    9.2255 C.ar    1  UNL1        0.1221
     32 N          67.5581   92.9464   10.2165 N.ar    1  UNL1       -0.1635
@<TRIPOS>BOND
     1     9    10    1
     2    10    11   ar
     3    11    12   ar
     4    12    13   ar
     5    13     1    1
     6     1     2    2
     7     1     3   am
     8     3     4    1
     9     4     5    1
    10     5     6    1
    11     6     7    1
    12     7     8    1
    13     8    21    1
    14    21    22    1
    15    22    23   ar
    16    23    24   ar
    17    24    25   ar
    18    25    26   ar
    19    26    28    1
    20    28    29   ar
    21    29    30   ar
    22    30    31   ar
    23    31    32   ar
    24    26    27   ar
    25    13    14   ar
    26    14    16    1
    27    16    17   ar
    28    17    18   ar
    29    18    19   ar
    30    19    20   ar
    31    14    15   ar
    32    15    10   ar
    33     8     3    1
    34    27    22   ar
    35    20    16   ar
    36    32    28   ar
@<TRIPOS>MOLECULE
*****
 32 36 0 0 0
SMALL
GASTEIGER

@<TRIPOS>ATOM
      1 C          63.5337   87.5441   13.3495 C.2     1  UNL1        0.2506
      2 O          63.6977   88.5646   12.2625 O.2     1  UNL1       -0.2699
      3 N          63.4184   87.9832   14.7791 N.am    1  UNL1       -0.2723
      4 C          63.2544   86.9627   15.8663 C.3     1  UNL1        0.1257
      5 C          63.1391   87.4018   17.2959 C.3     1  UNL1        0.1637
      6 O          63.1878   88.8613   17.6385 O.3     1  UNL1       -0.3502
      7 C          63.3517   89.8818   16.5515 C.3     1  UNL1        0.1622
      8 C          63.4671   89.4427   15.1217 C.3     1  UNL1        0.1096
      9 C          63.3390   81.7060   11.9792 C.3     1  UNL1        0.0311
     10 C          63.3877   83.1655   12.3218 C.ar    1  UNL1       -0.0203
     11 C          64.2457   83.6414   13.4564 C.ar    1  UNL1       -0.0040
     12 C          64.2943   85.1009   13.7989 C.ar    1  UNL1        0.0058
     13 C          63.4850   86.0846   13.0069 C.ar    1  UNL1        0.0729
     14 C          62.6270   85.6087   11.8724 C.ar    1  UNL1        0.1069
     15 C          62.5783   84.1492   11.5298 C.ar    1  UNL1        0.0168
     16 N          61.8176   86.5924   11.0803 N.ar    1  UNL1       -0.1477
     17 N          60.6077   87.3335   11.5672 N.ar    1  UNL1       -0.1447
     18 C          60.1184   88.2068   10.4502 C.ar    1  UNL1        0.1446
     19 C          61.0258   88.0055    9.2728 C.ar    1  UNL1        0.1446
     20 N          62.0760   87.0077    9.6623 N.ar    1  UNL1       -0.1447
     21 C          63.6310   90.4632   14.0347 C.3     1  UNL1        0.0488
     22 C          64.9472   91.1589   13.8514 C.ar    1  UNL1       -0.0189
     23 C          66.0433   90.9673   14.8573 C.ar    1  UNL1       -0.0041
     24 C          67.3596   91.6629   14.6739 C.ar    1  UNL1        0.0012
     25 C          67.5797   92.5502   13.4848 C.ar    1  UNL1        0.0191
     26 C          66.4836   92.7418   12.4789 C.ar    1  UNL1        0.0825
     27 C          65.1674   92.0462   12.6622 C.ar    1  UNL1        0.0149
     28 N          66.7037   93.6292   11.2896 N.ar    1  UNL1       -0.2282
     29 C          66.0364   94.9489   11.0387 C.ar    1  UNL1        0.1020
     30 C          66.5501   95.4879    9.7365 C.ar    1  UNL1        0.0431
     31 C          67.5348   94.5012    9.1826 C.ar    1  UNL1        0.1221
     32 N          67.6298   93.3525   10.1425 N.ar    1  UNL1       -0.1635
@<TRIPOS>BOND
     1     9    10    1
     2    10    11   ar
     3    11    12   ar
     4    12    13   ar
     5    13     1    1
     6     1     2    2
     7     1     3   am
     8     3     4    1
     9     4     5    1
    10     5     6    1
    11     6     7    1
    12     7     8    1
    13     8    21    1
    14    21    22    1
    15    22    23   ar
    16    23    24   ar
    17    24    25   ar
    18    25    26   ar
    19    26    28    1
    20    28    29   ar
    21    29    30   ar
    22    30    31   ar
    23    31    32   ar
    24    26    27   ar
    25    13    14   ar
    26    14    16    1
    27    16    17   ar
    28    17    18   ar
    29    18    19   ar
    30    19    20   ar
    31    14    15   ar
    32    15    10   ar
    33     8     3    1
    34    27    22   ar
    35    20    16   ar
    36    32    28   ar
@<TRIPOS>MOLECULE
*****
 32 36 0 0 0
SMALL
GASTEIGER

@<TRIPOS>ATOM
      1 C          62.7460   88.5684   11.5782 C.2     1  UNL1        0.2506
      2 O          62.7499   90.0674   11.5246 O.2     1  UNL1       -0.2699
      3 N          63.3578   87.8583   12.7492 N.am    1  UNL1       -0.2723
      4 C          63.3540   86.3592   12.8028 C.3     1  UNL1        0.1257
      5 C          63.9658   85.6490   13.9738 C.3     1  UNL1        0.1637
      6 O          64.5815   86.4379   15.0913 O.3     1  UNL1       -0.3502
      7 C          64.5853   87.9369   15.0377 C.3     1  UNL1        0.1622
      8 C          63.9735   88.6471   13.8666 C.3     1  UNL1        0.1096
      9 C          60.2834   85.4130    7.1084 C.3     1  UNL1        0.0311
     10 C          60.8991   86.2019    8.2258 C.ar    1  UNL1       -0.0203
     11 C          62.3464   86.0106    8.5702 C.ar    1  UNL1       -0.0040
     12 C          62.9620   86.7994    9.6877 C.ar    1  UNL1        0.0058
     13 C          62.1304   87.7796   10.4607 C.ar    1  UNL1        0.0729
     14 C          60.6831   87.9709   10.1163 C.ar    1  UNL1        0.1069
     15 C          60.0674   87.1820    8.9988 C.ar    1  UNL1        0.0168
     16 N          59.8514   88.9511   10.8893 N.ar    1  UNL1       -0.1477
     17 N          59.1008   88.6645   12.1560 N.ar    1  UNL1       -0.1447
     18 C          58.4098   89.9262   12.5809 C.ar    1  UNL1        0.1446
     19 C          58.7332   90.9926   11.5768 C.ar    1  UNL1        0.1446
     20 N          59.6241   90.3899   10.5313 N.ar    1  UNL1       -0.1447
     21 C          63.9773   90.1461   13.8131 C.3     1  UNL1        0.0488
     22 C          65.2765   90.8899   13.7181 C.ar    1  UNL1       -0.0189
     23 C          66.1803   90.9762   14.9121 C.ar    1  UNL1       -0.0041
     24 C          67.4794   91.7200   14.8171 C.ar    1  UNL1        0.0012
     25 C          67.8748   92.3774   13.5282 C.ar    1  UNL1        0.0191
     26 C          66.9710   92.2911   12.3342 C.ar    1  UNL1        0.0825
     27 C          65.6718   91.5473   12.4292 C.ar    1  UNL1        0.0149
     28 N          67.3663   92.9486   11.0452 N.ar    1  UNL1       -0.2282
     29 C          68.0394   92.2788    9.8840 C.ar    1  UNL1        0.1020
     30 C          68.2470   93.3075    8.8122 C.ar    1  UNL1        0.0431
     31 C          67.7022   94.6131    9.3110 C.ar    1  UNL1        0.1221
     32 N          67.1579   94.3912   10.6911 N.ar    1  UNL1       -0.1635
@<TRIPOS>BOND
     1     9    10    1
     2    10    11   ar
     3    11    12   ar
     4    12    13   ar
     5    13     1    1
     6     1     2    2
     7     1     3   am
     8     3     4    1
     9     4     5    1
    10     5     6    1
    11     6     7    1
    12     7     8    1
    13     8    21    1
    14    21    22    1
    15    22    23   ar
    16    23    24   ar
    17    24    25   ar
    18    25    26   ar
    19    26    28    1
    20    28    29   ar
    21    29    30   ar
    22    30    31   ar
    23    31    32   ar
    24    26    27   ar
    25    13    14   ar
    26    14    16    1
    27    16    17   ar
    28    17    18   ar
    29    18    19   ar
    30    19    20   ar
    31    14    15   ar
    32    15    10   ar
    33     8     3    1
    34    27    22   ar
    35    20    16   ar
    36    32    28   ar
@<TRIPOS>MOLECULE
*****
 32 36 0 0 0
SMALL
GASTEIGER

@<TRIPOS>ATOM
      1 C          62.7212   89.0288   11.5831 C.2     1  UNL1        0.2506
      2 O          62.9248   87.8675   12.5103 O.2     1  UNL1       -0.2699
      3 N          61.6747   88.9578   10.5108 N.am    1  UNL1       -0.2723
      4 C          61.4710   90.1192    9.5835 C.3     1  UNL1        0.1257
      5 C          60.4245   90.0482    8.5112 C.3     1  UNL1        0.1637
      6 O          59.5817   88.8159    8.3662 O.3     1  UNL1       -0.3502
      7 C          59.7854   87.6545    9.2934 C.3     1  UNL1        0.1622
      8 C          60.8319   87.7255   10.3658 C.3     1  UNL1        0.1096
      9 C          66.0924   93.9581   12.1633 C.3     1  UNL1        0.0311
     10 C          65.2496   92.7258   12.0182 C.ar    1  UNL1       -0.0203
     11 C          64.7071   92.3422   10.6735 C.ar    1  UNL1       -0.0040
     12 C          63.8643   91.1099   10.5284 C.ar    1  UNL1        0.0058
     13 C          63.5640   90.2611   11.7281 C.ar    1  UNL1        0.0729
     14 C          64.1065   90.6447   13.0729 C.ar    1  UNL1        0.1069
     15 C          64.9493   91.8770   13.2180 C.ar    1  UNL1        0.0168
     16 N          63.8062   89.7960   14.2728 N.ar    1  UNL1       -0.1477
     17 N          62.7337   90.0541   15.2892 N.ar    1  UNL1       -0.1447
     18 C          62.7903   88.9578   16.3114 C.ar    1  UNL1        0.1446
     19 C          63.8978   88.0221   15.9267 C.ar    1  UNL1        0.1446
     20 N          64.5256   88.5401   14.6668 N.ar    1  UNL1       -0.1447
     21 C          61.0355   86.5642   11.2930 C.3     1  UNL1        0.0488
     22 C          61.9402   85.4359   10.8946 C.ar    1  UNL1       -0.0189
     23 C          62.6818   85.4935    9.5920 C.ar    1  UNL1       -0.0041
     24 C          63.5864   84.3653    9.1936 C.ar    1  UNL1        0.0012
     25 C          63.7495   83.1795   10.0977 C.ar    1  UNL1        0.0191
     26 C          63.0079   83.1220   11.4002 C.ar    1  UNL1        0.0825
     27 C          62.1032   84.2502   11.7986 C.ar    1  UNL1        0.0149
     28 N          63.1709   81.9362   12.3044 N.ar    1  UNL1       -0.2282
     29 C          64.0873   81.8499   13.4887 C.ar    1  UNL1        0.1020
     30 C          63.9289   80.4890   14.0992 C.ar    1  UNL1        0.0431
     31 C          62.9145   79.7341   13.2921 C.ar    1  UNL1        0.1221
     32 N          62.4460   80.6286   12.1829 N.ar    1  UNL1       -0.1635
@<TRIPOS>BOND
     1     9    10    1
     2    10    11   ar
     3    11    12   ar
     4    12    13   ar
     5    13     1    1
     6     1     2    2
     7     1     3   am
     8     3     4    1
     9     4     5    1
    10     5     6    1
    11     6     7    1
    12     7     8    1
    13     8    21    1
    14    21    22    1
    15    22    23   ar
    16    23    24   ar
    17    24    25   ar
    18    25    26   ar
    19    26    28    1
    20    28    29   ar
    21    29    30   ar
    22    30    31   ar
    23    31    32   ar
    24    26    27   ar
    25    13    14   ar
    26    14    16    1
    27    16    17   ar
    28    17    18   ar
    29    18    19   ar
    30    19    20   ar
    31    14    15   ar
    32    15    10   ar
    33     8     3    1
    34    27    22   ar
    35    20    16   ar
    36    32    28   ar
@<TRIPOS>MOLECULE
*****
 32 36 0 0 0
SMALL
GASTEIGER

@<TRIPOS>ATOM
      1 C          63.4579   87.4521   13.1804 C.2     1  UNL1        0.2506
      2 O          63.4639   88.1163   11.8355 O.2     1  UNL1       -0.2699
      3 N          63.3696   88.2825   14.4265 N.am    1  UNL1       -0.2723
      4 C          63.3636   87.6183   15.7715 C.3     1  UNL1        0.1257
      5 C          63.2753   88.4487   17.0175 C.3     1  UNL1        0.1637
      6 O          63.1930   89.9432   16.9187 O.3     1  UNL1       -0.3502
      7 C          63.1989   90.6073   15.5737 C.3     1  UNL1        0.1622
      8 C          63.2873   89.7769   14.3276 C.3     1  UNL1        0.1096
      9 C          63.7873   81.4742   13.5759 C.3     1  UNL1        0.0311
     10 C          63.7050   82.9687   13.4770 C.ar    1  UNL1       -0.0203
     11 C          64.3925   83.8269   14.4972 C.ar    1  UNL1       -0.0040
     12 C          64.3101   85.3213   14.3983 C.ar    1  UNL1        0.0058
     13 C          63.5403   85.9577   13.2793 C.ar    1  UNL1        0.0729
     14 C          62.8527   85.0995   12.2591 C.ar    1  UNL1        0.1069
     15 C          62.9351   83.6050   12.3580 C.ar    1  UNL1        0.0168
     16 N          62.0828   85.7358   11.1399 N.ar    1  UNL1       -0.1477
     17 N          62.4003   85.6271    9.6780 N.ar    1  UNL1       -0.1447
     18 C          61.3740   86.4166    8.9208 C.ar    1  UNL1        0.1446
     19 C          60.4222   87.0133    9.9148 C.ar    1  UNL1        0.1446
     20 N          60.8603   86.5925   11.2863 N.ar    1  UNL1       -0.1447
     21 C          63.2932   90.4411   12.9827 C.3     1  UNL1        0.0488
     22 C          64.4387   91.3254   12.5880 C.ar    1  UNL1       -0.0189
     23 C          64.5192   91.8706   11.1929 C.ar    1  UNL1       -0.0041
     24 C          65.6647   92.7550   10.7982 C.ar    1  UNL1        0.0012
     25 C          66.7296   93.0942   11.7986 C.ar    1  UNL1        0.0191
     26 C          66.6491   92.5490   13.1937 C.ar    1  UNL1        0.0825
     27 C          65.5036   91.6646   13.5884 C.ar    1  UNL1        0.0149
     28 N          67.7141   92.8882   14.1941 N.ar    1  UNL1       -0.2282
     29 C          67.5375   93.7423   15.4144 C.ar    1  UNL1        0.1020
     30 C          68.8569   93.8148   16.1244 C.ar    1  UNL1        0.0431
     31 C          69.8489   93.0054   15.3428 C.ar    1  UNL1        0.1221
     32 N          69.1426   92.4328   14.1498 N.ar    1  UNL1       -0.1635
@<TRIPOS>BOND
     1     9    10    1
     2    10    11   ar
     3    11    12   ar
     4    12    13   ar
     5    13     1    1
     6     1     2    2
     7     1     3   am
     8     3     4    1
     9     4     5    1
    10     5     6    1
    11     6     7    1
    12     7     8    1
    13     8    21    1
    14    21    22    1
    15    22    23   ar
    16    23    24   ar
    17    24    25   ar
    18    25    26   ar
    19    26    28    1
    20    28    29   ar
    21    29    30   ar
    22    30    31   ar
    23    31    32   ar
    24    26    27   ar
    25    13    14   ar
    26    14    16    1
    27    16    17   ar
    28    17    18   ar
    29    18    19   ar
    30    19    20   ar
    31    14    15   ar
    32    15    10   ar
    33     8     3    1
    34    27    22   ar
    35    20    16   ar
    36    32    28   ar
@<TRIPOS>MOLECULE
*****
 32 36 0 0 0
SMALL
GASTEIGER

@<TRIPOS>ATOM
      1 C          61.0633   86.7199   10.2037 C.2     1  UNL1        0.2506
      2 O          60.6849   86.8915   11.6449 O.2     1  UNL1       -0.2699
      3 N          62.0570   85.6677    9.8094 N.am    1  UNL1       -0.2723
      4 C          62.4355   85.4960    8.3681 C.3     1  UNL1        0.1257
      5 C          63.4291   84.4438    7.9738 C.3     1  UNL1        0.1637
      6 O          64.0443   83.5632    9.0208 O.3     1  UNL1       -0.3502
      7 C          63.6658   83.7348   10.4621 C.3     1  UNL1        0.1622
      8 C          62.6721   84.7871   10.8564 C.3     1  UNL1        0.1096
      9 C          58.6027   90.2422    6.0157 C.3     1  UNL1        0.0311
     10 C          59.2179   89.3616    7.0627 C.ar    1  UNL1       -0.0203
     11 C          58.9744   87.8818    7.0356 C.ar    1  UNL1       -0.0040
     12 C          59.5896   87.0012    8.0826 C.ar    1  UNL1        0.0058
     13 C          60.4482   87.6005    9.1567 C.ar    1  UNL1        0.0729
     14 C          60.6916   89.0803    9.1837 C.ar    1  UNL1        0.1069
     15 C          60.0765   89.9609    8.1368 C.ar    1  UNL1        0.0168
     16 N          61.5503   89.6796   10.2578 N.ar    1  UNL1       -0.1477
     17 N          62.9518   90.1860   10.0863 N.ar    1  UNL1       -0.1447
     18 C          63.4258   90.6971   11.4144 C.ar    1  UNL1        0.1446
     19 C          62.3173   90.5067   12.4068 C.ar    1  UNL1        0.1446
     20 N          61.1581   89.8779   11.6920 N.ar    1  UNL1       -0.1447
     21 C          62.2936   84.9588   12.2976 C.3     1  UNL1        0.0488
     22 C          63.3013   85.4755   13.2813 C.ar    1  UNL1       -0.0189
     23 C          64.3067   84.5409   13.8860 C.ar    1  UNL1       -0.0041
     24 C          65.3143   85.0576   14.8697 C.ar    1  UNL1        0.0012
     25 C          65.3167   86.5089   15.2486 C.ar    1  UNL1        0.0191
     26 C          64.3114   87.4435   14.6439 C.ar    1  UNL1        0.0825
     27 C          63.3037   86.9268   13.6602 C.ar    1  UNL1        0.0149
     28 N          64.3137   88.8949   15.0228 N.ar    1  UNL1       -0.2282
     29 C          63.4286   89.5400   16.0477 C.ar    1  UNL1        0.1020
     30 C          63.7694   90.9997   16.1016 C.ar    1  UNL1        0.0431
     31 C          64.8651   91.2569   15.1100 C.ar    1  UNL1        0.1221
     32 N          65.2015   89.9560   14.4432 N.ar    1  UNL1       -0.1635
@<TRIPOS>BOND
     1     9    10    1
     2    10    11   ar
     3    11    12   ar
     4    12    13   ar
     5    13     1    1
     6     1     2    2
     7     1     3   am
     8     3     4    1
     9     4     5    1
    10     5     6    1
    11     6     7    1
    12     7     8    1
    13     8    21    1
    14    21    22    1
    15    22    23   ar
    16    23    24   ar
    17    24    25   ar
    18    25    26   ar
    19    26    28    1
    20    28    29   ar
    21    29    30   ar
    22    30    31   ar
    23    31    32   ar
    24    26    27   ar
    25    13    14   ar
    26    14    16    1
    27    16    17   ar
    28    17    18   ar
    29    18    19   ar
    30    19    20   ar
    31    14    15   ar
    32    15    10   ar
    33     8     3    1
    34    27    22   ar
    35    20    16   ar
    36    32    28   ar
@<TRIPOS>MOLECULE
*****
 32 36 0 0 0
SMALL
GASTEIGER

@<TRIPOS>ATOM
      1 C          65.0502   91.2989   12.6871 C.2     1  UNL1        0.2506
      2 O          65.8573   90.8021   13.8497 O.2     1  UNL1       -0.2699
      3 N          63.8932   90.4915   12.1778 N.am    1  UNL1       -0.2723
      4 C          63.0860   90.9883   11.0151 C.3     1  UNL1        0.1257
      5 C          61.9289   90.1809   10.5058 C.3     1  UNL1        0.1637
      6 O          61.5791   88.8768   11.1591 O.3     1  UNL1       -0.3502
      7 C          62.3862   88.3800   12.3217 C.3     1  UNL1        0.1622
      8 C          63.5433   89.1874   12.8311 C.3     1  UNL1        0.1096
      9 C          66.4496   96.5155   10.0739 C.3     1  UNL1        0.0311
     10 C          66.0998   95.2113   10.7272 C.ar    1  UNL1       -0.0203
     11 C          65.2265   94.2242   10.0110 C.ar    1  UNL1       -0.0040
     12 C          64.8766   92.9201   10.6643 C.ar    1  UNL1        0.0058
     13 C          65.4000   92.6030   12.0338 C.ar    1  UNL1        0.0729
     14 C          66.2734   93.5901   12.7499 C.ar    1  UNL1        0.1069
     15 C          66.6232   94.8943   12.0966 C.ar    1  UNL1        0.0168
     16 N          66.7969   93.2731   14.1195 N.ar    1  UNL1       -0.1477
     17 N          68.2312   93.0203   14.4784 N.ar    1  UNL1       -0.1447
     18 C          68.2988   92.7442   15.9512 C.ar    1  UNL1        0.1446
     19 C          66.9062   92.8264   16.5025 C.ar    1  UNL1        0.1446
     20 N          65.9780   93.1533   15.3705 N.ar    1  UNL1       -0.1447
     21 C          64.3504   88.6906   13.9937 C.3     1  UNL1        0.0488
     22 C          63.9425   87.4367   14.7088 C.ar    1  UNL1       -0.0189
     23 C          63.5203   87.4970   16.1469 C.ar    1  UNL1       -0.0041
     24 C          63.1124   86.2431   16.8620 C.ar    1  UNL1        0.0012
     25 C          63.1266   84.9290   16.1390 C.ar    1  UNL1        0.0191
     26 C          63.5487   84.8687   14.7009 C.ar    1  UNL1        0.0825
     27 C          63.9567   86.1226   13.9858 C.ar    1  UNL1        0.0149
     28 N          63.5629   83.5545   13.9778 N.ar    1  UNL1       -0.2282
     29 C          63.5095   83.3657   12.4907 C.ar    1  UNL1        0.1020
     30 C          63.5466   81.8930   12.2088 C.ar    1  UNL1        0.0431
     31 C          63.6230   81.1714   13.5217 C.ar    1  UNL1        0.1221
     32 N          63.6331   82.1983   14.6150 N.ar    1  UNL1       -0.1635
@<TRIPOS>BOND
     1     9    10    1
     2    10    11   ar
     3    11    12   ar
     4    12    13   ar
     5    13     1    1
     6     1     2    2
     7     1     3   am
     8     3     4    1
     9     4     5    1
    10     5     6    1
    11     6     7    1
    12     7     8    1
    13     8    21    1
    14    21    22    1
    15    22    23   ar
    16    23    24   ar
    17    24    25   ar
    18    25    26   ar
    19    26    28    1
    20    28    29   ar
    21    29    30   ar
    22    30    31   ar
    23    31    32   ar
    24    26    27   ar
    25    13    14   ar
    26    14    16    1
    27    16    17   ar
    28    17    18   ar
    29    18    19   ar
    30    19    20   ar
    31    14    15   ar
    32    15    10   ar
    33     8     3    1
    34    27    22   ar
    35    20    16   ar
    36    32    28   ar
@<TRIPOS>MOLECULE
*****
 32 36 0 0 0
SMALL
GASTEIGER

@<TRIPOS>ATOM
      1 C          64.0664   84.9753   14.1810 C.2     1  UNL1        0.2506
      2 O          65.1444   85.7062   13.4370 O.2     1  UNL1       -0.2699
      3 N          63.3933   85.6234   15.3544 N.am    1  UNL1       -0.2723
      4 C          62.3152   84.8925   16.0984 C.3     1  UNL1        0.1257
      5 C          61.6422   85.5405   17.2719 C.3     1  UNL1        0.1637
      6 O          62.0472   86.9195   17.7013 O.3     1  UNL1       -0.3502
      7 C          63.1253   87.6504   16.9574 C.3     1  UNL1        0.1622
      8 C          63.7984   87.0023   15.7839 C.3     1  UNL1        0.1096
      9 C          62.4462   79.4596   12.4630 C.3     1  UNL1        0.0311
     10 C          62.8512   80.8385   12.8925 C.ar    1  UNL1       -0.0203
     11 C          63.6412   81.0296   14.1532 C.ar    1  UNL1       -0.0040
     12 C          64.0462   82.4086   14.5826 C.ar    1  UNL1        0.0058
     13 C          63.6613   83.5964   13.7515 C.ar    1  UNL1        0.0729
     14 C          62.8713   83.4052   12.4908 C.ar    1  UNL1        0.1069
     15 C          62.4663   82.0263   12.0613 C.ar    1  UNL1        0.0168
     16 N          62.4864   84.5931   11.6595 N.ar    1  UNL1       -0.1477
     17 N          62.8684   84.8287   10.2282 N.ar    1  UNL1       -0.1447
     18 C          62.2700   86.1350    9.7977 C.ar    1  UNL1        0.1446
     19 C          61.5181   86.7067   10.9629 C.ar    1  UNL1        0.1446
     20 N          61.6518   85.7538   12.1136 N.ar    1  UNL1       -0.1447
     21 C          64.8765   87.7332   15.0399 C.3     1  UNL1        0.0488
     22 C          64.5420   88.9670   14.2552 C.ar    1  UNL1       -0.0189
     23 C          65.2953   90.2403   14.5024 C.ar    1  UNL1       -0.0041
     24 C          64.9608   91.4741   13.7177 C.ar    1  UNL1        0.0012
     25 C          63.8730   91.4346   12.6857 C.ar    1  UNL1        0.0191
     26 C          63.1197   90.1613   12.4384 C.ar    1  UNL1        0.0825
     27 C          63.4542   88.9275   13.2232 C.ar    1  UNL1        0.0149
     28 N          62.0318   90.1218   11.4064 N.ar    1  UNL1       -0.2282
     29 C          62.2276   90.0292    9.9221 C.ar    1  UNL1        0.1020
     30 C          60.8740   90.0181    9.2759 C.ar    1  UNL1        0.0431
     31 C          59.8416   90.1039   10.3608 C.ar    1  UNL1        0.1221
     32 N          60.5572   90.1680   11.6775 N.ar    1  UNL1       -0.1635
@<TRIPOS>BOND
     1     9    10    1
     2    10    11   ar
     3    11    12   ar
     4    12    13   ar
     5    13     1    1
     6     1     2    2
     7     1     3   am
     8     3     4    1
     9     4     5    1
    10     5     6    1
    11     6     7    1
    12     7     8    1
    13     8    21    1
    14    21    22    1
    15    22    23   ar
    16    23    24   ar
    17    24    25   ar
    18    25    26   ar
    19    26    28    1
    20    28    29   ar
    21    29    30   ar
    22    30    31   ar
    23    31    32   ar
    24    26    27   ar
    25    13    14   ar
    26    14    16    1
    27    16    17   ar
    28    17    18   ar
    29    18    19   ar
    30    19    20   ar
    31    14    15   ar
    32    15    10   ar
    33     8     3    1
    34    27    22   ar
    35    20    16   ar
    36    32    28   ar
