@<TRIPOS>MOLECULE
*****
 26 29 0 0 0
SMALL
GASTEIGER

@<TRIPOS>ATOM
      1 C          61.1598   89.7230   10.1058 C.3     1  UNL1        0.0914
      2 C          62.2913   90.3750   10.8436 C.ar    1  UNL1       -0.0079
      3 C          63.2927   91.2065   10.0979 C.ar    1  UNL1       -0.0032
      4 C          64.4242   91.8584   10.8357 C.ar    1  UNL1        0.0028
      5 C          64.5545   91.6790   12.3193 C.ar    1  UNL1        0.0375
      6 C          63.5532   90.8475   13.0650 C.ar    1  UNL1        0.1450
      7 C          62.4216   90.1955   12.3271 C.ar    1  UNL1        0.0341
      8 O          63.6835   90.6681   14.5484 O.3     1  UNL1       -0.4535
      9 C          63.6782   89.2899   15.1405 C.ar    1  UNL1        0.1453
     10 C          63.0385   89.0497   16.4758 C.ar    1  UNL1        0.0375
     11 C          63.0332   87.6714   17.0678 C.ar    1  UNL1        0.0031
     12 C          63.6676   86.5334   16.3245 C.ar    1  UNL1        0.0002
     13 C          64.3072   86.7736   14.9892 C.ar    1  UNL1        0.0031
     14 C          64.3125   88.1518   14.3971 C.ar    1  UNL1        0.0375
     15 S          60.5365   88.4696   10.6446 S.3     1  UNL1       -0.0709
     16 C          63.8248   83.0096   11.6347 C.2     1  UNL1        0.1223
     17 C          64.0621   83.0904   10.1558 C.2     1  UNL1        0.0343
     18 C          63.4899   84.2298    9.3655 C.2     1  UNL1        0.0232
     19 C          62.6804   85.2883   10.0541 C.2     1  UNL1        0.0975
     20 N          61.9951   86.5201    9.5414 N.2     1  UNL1       -0.2200
     21 C          61.3342   87.2006   10.7033 C.2     1  UNL1        0.1901
     22 N          61.6111   86.3893   11.9343 N.2     1  UNL1       -0.2236
     23 C          62.4431   85.2074   11.5330 C.2     1  UNL1        0.0863
     24 C          63.0153   84.0681   12.3233 C.3     1  UNL1        0.1112
     25 C          63.5416   81.1434   13.4199 C.3     1  UNL1        0.2520
     26 O          64.3969   81.8703   12.4250 O.2     1  UNL1       -0.4753
@<TRIPOS>BOND
     1    25    26    1
     2    26    16    1
     3    16    17    2
     4    17    18    1
     5    18    19    2
     6    19    20    1
     7    20    21    2
     8    21    15    1
     9    15     1    1
    10     1     2    1
    11     2     3   ar
    12     3     4   ar
    13     4     5   ar
    14     5     6   ar
    15     6     8    1
    16     8     9    1
    17     9    10   ar
    18    10    11   ar
    19    11    12   ar
    20    12    13   ar
    21    13    14   ar
    22     6     7   ar
    23    21    22    1
    24    22    23    2
    25    23    24    1
    26    24    16    1
    27    23    19    1
    28     7     2   ar
    29    14     9   ar
@<TRIPOS>MOLECULE
*****
 26 29 0 0 0
SMALL
GASTEIGER

@<TRIPOS>ATOM
      1 C          60.3740   87.4531    9.9895 C.3     1  UNL1        0.0914
      2 C          61.4149   86.3734    9.9608 C.ar    1  UNL1       -0.0079
      3 C          62.1440   86.0683    8.6859 C.ar    1  UNL1       -0.0032
      4 C          63.1849   84.9886    8.6572 C.ar    1  UNL1        0.0028
      5 C          63.4967   84.2141    9.9034 C.ar    1  UNL1        0.0375
      6 C          62.7676   84.5193   11.1783 C.ar    1  UNL1        0.1450
      7 C          61.7267   85.5990   11.2070 C.ar    1  UNL1        0.0341
      8 O          63.0794   83.7448   12.4245 O.3     1  UNL1       -0.4535
      9 C          63.2008   84.4566   13.7392 C.ar    1  UNL1        0.1453
     10 C          64.2076   85.5559   13.9067 C.ar    1  UNL1        0.0375
     11 C          64.3289   86.2677   15.2215 C.ar    1  UNL1        0.0031
     12 C          63.4436   85.8803   16.3687 C.ar    1  UNL1        0.0002
     13 C          62.4368   84.7810   16.2011 C.ar    1  UNL1        0.0031
     14 C          62.3154   84.0692   14.8864 C.ar    1  UNL1        0.0375
     15 S          60.7706   88.8833    9.7720 S.3     1  UNL1       -0.0709
     16 C          65.4086   92.0612   12.9335 C.2     1  UNL1        0.1223
     17 C          65.1209   91.0565   14.0095 C.2     1  UNL1        0.0343
     18 C          64.0658   90.0117   13.7974 C.2     1  UNL1        0.0232
     19 C          63.2983   89.9715   12.5093 C.2     1  UNL1        0.0975
     20 N          62.2087   89.0652   12.0180 N.2     1  UNL1       -0.2200
     21 C          61.8229   89.5098   10.6382 C.2     1  UNL1        0.1901
     22 N          62.6742   90.6908   10.2768 N.2     1  UNL1       -0.2236
     23 C          63.5860   90.9761   11.4332 C.2     1  UNL1        0.0863
     24 C          64.6411   92.0209   11.6453 C.3     1  UNL1        0.1112
     25 C          66.8440   93.5162   14.5374 C.3     1  UNL1        0.2520
     26 O          66.4637   93.1060   13.1456 O.2     1  UNL1       -0.4753
@<TRIPOS>BOND
     1    25    26    1
     2    26    16    1
     3    16    17    2
     4    17    18    1
     5    18    19    2
     6    19    20    1
     7    20    21    2
     8    21    15    1
     9    15     1    1
    10     1     2    1
    11     2     3   ar
    12     3     4   ar
    13     4     5   ar
    14     5     6   ar
    15     6     8    1
    16     8     9    1
    17     9    10   ar
    18    10    11   ar
    19    11    12   ar
    20    12    13   ar
    21    13    14   ar
    22     6     7   ar
    23    21    22    1
    24    22    23    2
    25    23    24    1
    26    24    16    1
    27    23    19    1
    28     7     2   ar
    29    14     9   ar
@<TRIPOS>MOLECULE
*****
 26 29 0 0 0
SMALL
GASTEIGER

@<TRIPOS>ATOM
      1 C          60.4195   87.8938   10.8364 C.3     1  UNL1        0.0914
      2 C          61.3616   86.8203   10.3783 C.ar    1  UNL1       -0.0079
      3 C          61.5670   86.5782    8.9122 C.ar    1  UNL1       -0.0032
      4 C          62.5091   85.5047    8.4541 C.ar    1  UNL1        0.0028
      5 C          63.2459   84.6732    9.4620 C.ar    1  UNL1        0.0375
      6 C          63.0406   84.9153   10.9281 C.ar    1  UNL1        0.1450
      7 C          62.0984   85.9889   11.3861 C.ar    1  UNL1        0.0341
      8 O          63.7773   84.0840   11.9360 O.3     1  UNL1       -0.4535
      9 C          63.1487   82.8366   12.4827 C.ar    1  UNL1        0.1453
     10 C          62.4355   82.8723   13.8018 C.ar    1  UNL1        0.0375
     11 C          61.8068   81.6249   14.3485 C.ar    1  UNL1        0.0031
     12 C          61.8914   80.3419   13.5761 C.ar    1  UNL1        0.0002
     13 C          62.6047   80.3062   12.2570 C.ar    1  UNL1        0.0031
     14 C          63.2333   81.5535   11.7103 C.ar    1  UNL1        0.0375
     15 S          60.8101   89.3369   10.7140 S.3     1  UNL1       -0.0709
     16 C          65.9810   92.0909   13.4125 C.2     1  UNL1        0.1223
     17 C          65.7685   91.0468   14.4683 C.2     1  UNL1        0.0343
     18 C          64.6353   90.0721   14.3419 C.2     1  UNL1        0.0232
     19 C          63.7146   90.1416   13.1599 C.2     1  UNL1        0.0975
     20 N          62.5212   89.3219   12.7676 N.2     1  UNL1       -0.2200
     21 C          61.9960   89.8595   11.4694 C.2     1  UNL1        0.1901
     22 N          62.8649   91.0114   11.0593 N.2     1  UNL1       -0.2236
     23 C          63.9270   91.1857   12.1041 C.2     1  UNL1        0.0863
     24 C          65.0602   92.1603   12.2305 C.3     1  UNL1        0.1112
     25 C          67.6446   93.4273   14.8945 C.3     1  UNL1        0.2520
     26 O          67.1141   93.0655   13.5389 O.2     1  UNL1       -0.4753
@<TRIPOS>BOND
     1    25    26    1
     2    26    16    1
     3    16    17    2
     4    17    18    1
     5    18    19    2
     6    19    20    1
     7    20    21    2
     8    21    15    1
     9    15     1    1
    10     1     2    1
    11     2     3   ar
    12     3     4   ar
    13     4     5   ar
    14     5     6   ar
    15     6     8    1
    16     8     9    1
    17     9    10   ar
    18    10    11   ar
    19    11    12   ar
    20    12    13   ar
    21    13    14   ar
    22     6     7   ar
    23    21    22    1
    24    22    23    2
    25    23    24    1
    26    24    16    1
    27    23    19    1
    28     7     2   ar
    29    14     9   ar
@<TRIPOS>MOLECULE
*****
 26 29 0 0 0
SMALL
GASTEIGER

@<TRIPOS>ATOM
      1 C          62.2824   89.4964   10.3469 C.3     1  UNL1        0.0914
      2 C          63.1281   89.9493   11.5000 C.ar    1  UNL1       -0.0079
      3 C          63.2823   89.0723   12.7070 C.ar    1  UNL1       -0.0032
      4 C          64.1280   89.5252   13.8601 C.ar    1  UNL1        0.0028
      5 C          64.8196   90.8552   13.8061 C.ar    1  UNL1        0.0375
      6 C          64.6655   91.7322   12.5990 C.ar    1  UNL1        0.1450
      7 C          63.8197   91.2793   11.4459 C.ar    1  UNL1        0.0341
      8 O          65.3570   93.0622   12.5450 O.3     1  UNL1       -0.4535
      9 C          66.1857   93.4285   11.3496 C.ar    1  UNL1        0.1453
     10 C          67.1660   92.4430   10.7860 C.ar    1  UNL1        0.0375
     11 C          67.9947   92.8094    9.5905 C.ar    1  UNL1        0.0031
     12 C          67.8430   94.1613    8.9587 C.ar    1  UNL1        0.0002
     13 C          66.8627   95.1469    9.5223 C.ar    1  UNL1        0.0031
     14 C          66.0341   94.7805   10.7177 C.ar    1  UNL1        0.0375
     15 S          61.3415   88.3404   10.5154 S.3     1  UNL1       -0.0709
     16 C          63.3947   82.3932   11.9367 C.2     1  UNL1        0.1223
     17 C          63.9100   82.4237   10.5283 C.2     1  UNL1        0.0343
     18 C          63.6991   83.6418    9.6788 C.2     1  UNL1        0.0232
     19 C          62.9729   84.8293   10.2375 C.2     1  UNL1        0.0975
     20 N          62.6176   86.1597    9.6426 N.2     1  UNL1       -0.2200
     21 C          61.8826   86.9514   10.6833 C.2     1  UNL1        0.1901
     22 N          61.7837   86.1104   11.9214 N.2     1  UNL1       -0.2236
     23 C          62.4576   84.7988   11.6458 C.2     1  UNL1        0.0863
     24 C          62.6684   83.5807   12.4954 C.3     1  UNL1        0.1112
     25 C          62.4454   80.2866   13.1245 C.3     1  UNL1        0.2520
     26 O          63.6056   81.1751   12.7863 O.2     1  UNL1       -0.4753
@<TRIPOS>BOND
     1    25    26    1
     2    26    16    1
     3    16    17    2
     4    17    18    1
     5    18    19    2
     6    19    20    1
     7    20    21    2
     8    21    15    1
     9    15     1    1
    10     1     2    1
    11     2     3   ar
    12     3     4   ar
    13     4     5   ar
    14     5     6   ar
    15     6     8    1
    16     8     9    1
    17     9    10   ar
    18    10    11   ar
    19    11    12   ar
    20    12    13   ar
    21    13    14   ar
    22     6     7   ar
    23    21    22    1
    24    22    23    2
    25    23    24    1
    26    24    16    1
    27    23    19    1
    28     7     2   ar
    29    14     9   ar
@<TRIPOS>MOLECULE
*****
 26 29 0 0 0
SMALL
GASTEIGER

@<TRIPOS>ATOM
      1 C          61.7449   85.8641    9.9732 C.3     1  UNL1        0.0914
      2 C          62.6656   84.8695   10.6159 C.ar    1  UNL1       -0.0079
      3 C          63.5003   83.9603    9.7635 C.ar    1  UNL1       -0.0032
      4 C          64.4209   82.9657   10.4061 C.ar    1  UNL1        0.0028
      5 C          64.5069   82.8802   11.9013 C.ar    1  UNL1        0.0375
      6 C          63.6723   83.7895   12.7537 C.ar    1  UNL1        0.1450
      7 C          62.7516   84.7841   12.1109 C.ar    1  UNL1        0.0341
      8 O          63.7582   83.7041   14.2487 O.3     1  UNL1       -0.4535
      9 C          63.5723   84.9372   15.0823 C.ar    1  UNL1        0.1453
     10 C          64.2840   86.2054   14.7146 C.ar    1  UNL1        0.0375
     11 C          64.0980   87.4385   15.5482 C.ar    1  UNL1        0.0031
     12 C          63.2004   87.4035   16.7494 C.ar    1  UNL1        0.0002
     13 C          62.4887   86.1353   17.1171 C.ar    1  UNL1        0.0031
     14 C          62.6746   84.9022   16.2836 C.ar    1  UNL1        0.0375
     15 S          61.1697   86.9870   10.7846 S.3     1  UNL1       -0.0709
     16 C          64.8056   91.9220   12.7921 C.2     1  UNL1        0.1223
     17 C          64.6548   92.3826   11.3726 C.2     1  UNL1        0.0343
     18 C          63.8575   91.5655   10.3997 C.2     1  UNL1        0.0232
     19 C          63.2109   90.2878   10.8463 C.2     1  UNL1        0.0975
     20 N          62.3714   89.2799   10.1186 N.2     1  UNL1       -0.2200
     21 C          62.0034   88.1964   11.0885 C.2     1  UNL1        0.1901
     22 N          62.6153   88.5347   12.4155 N.2     1  UNL1       -0.2236
     23 C          63.3616   89.8273   12.2658 C.2     1  UNL1        0.0863
     24 C          64.1590   90.6443   13.2387 C.3     1  UNL1        0.1112
     25 C          66.0000   92.1535   15.0877 C.3     1  UNL1        0.2520
     26 O          65.6029   92.7391   13.7651 O.2     1  UNL1       -0.4753
@<TRIPOS>BOND
     1    25    26    1
     2    26    16    1
     3    16    17    2
     4    17    18    1
     5    18    19    2
     6    19    20    1
     7    20    21    2
     8    21    15    1
     9    15     1    1
    10     1     2    1
    11     2     3   ar
    12     3     4   ar
    13     4     5   ar
    14     5     6   ar
    15     6     8    1
    16     8     9    1
    17     9    10   ar
    18    10    11   ar
    19    11    12   ar
    20    12    13   ar
    21    13    14   ar
    22     6     7   ar
    23    21    22    1
    24    22    23    2
    25    23    24    1
    26    24    16    1
    27    23    19    1
    28     7     2   ar
    29    14     9   ar
@<TRIPOS>MOLECULE
*****
 26 29 0 0 0
SMALL
GASTEIGER

@<TRIPOS>ATOM
      1 C          61.3575   90.0917   10.4010 C.3     1  UNL1        0.0914
      2 C          61.1293   88.7973    9.6782 C.ar    1  UNL1       -0.0079
      3 C          59.8374   88.5606    8.9535 C.ar    1  UNL1       -0.0032
      4 C          59.6092   87.2663    8.2307 C.ar    1  UNL1        0.0028
      5 C          60.6728   86.2085    8.2325 C.ar    1  UNL1        0.0375
      6 C          61.9647   86.4452    8.9572 C.ar    1  UNL1        0.1450
      7 C          62.1929   87.7397    9.6800 C.ar    1  UNL1        0.0341
      8 O          63.0283   85.3876    8.9590 O.3     1  UNL1       -0.4535
      9 C          63.1965   84.4952   10.1529 C.ar    1  UNL1        0.1453
     10 C          62.5326   84.8465   11.4513 C.ar    1  UNL1        0.0375
     11 C          62.7009   83.9541   12.6452 C.ar    1  UNL1        0.0031
     12 C          63.5329   82.7104   12.5406 C.ar    1  UNL1        0.0002
     13 C          64.1967   82.3591   11.2422 C.ar    1  UNL1        0.0031
     14 C          64.0285   83.2515   10.0484 C.ar    1  UNL1        0.0375
     15 S          62.5660   90.9229   10.0873 S.3     1  UNL1       -0.0709
     16 C          67.3183   92.5003   14.1534 C.2     1  UNL1        0.1223
     17 C          66.5144   91.6932   15.1293 C.2     1  UNL1        0.0343
     18 C          65.2303   91.0517   14.6938 C.2     1  UNL1        0.0232
     19 C          64.7501   91.2172   13.2824 C.2     1  UNL1        0.0975
     20 N          63.5330   90.7064   12.5699 N.2     1  UNL1       -0.2200
     21 C          63.5847   91.1978   11.1536 C.2     1  UNL1        0.1901
     22 N          64.8337   92.0123   10.9908 N.2     1  UNL1       -0.2236
     23 C          65.5540   92.0242   12.3065 C.2     1  UNL1        0.0863
     24 C          66.8381   92.6658   12.7420 C.3     1  UNL1        0.1112
     25 C          68.6820   93.8343   15.9170 C.3     1  UNL1        0.2520
     26 O          68.6023   93.1418   14.5888 O.2     1  UNL1       -0.4753
@<TRIPOS>BOND
     1    25    26    1
     2    26    16    1
     3    16    17    2
     4    17    18    1
     5    18    19    2
     6    19    20    1
     7    20    21    2
     8    21    15    1
     9    15     1    1
    10     1     2    1
    11     2     3   ar
    12     3     4   ar
    13     4     5   ar
    14     5     6   ar
    15     6     8    1
    16     8     9    1
    17     9    10   ar
    18    10    11   ar
    19    11    12   ar
    20    12    13   ar
    21    13    14   ar
    22     6     7   ar
    23    21    22    1
    24    22    23    2
    25    23    24    1
    26    24    16    1
    27    23    19    1
    28     7     2   ar
    29    14     9   ar
@<TRIPOS>MOLECULE
*****
 26 29 0 0 0
SMALL
GASTEIGER

@<TRIPOS>ATOM
      1 C          60.0545   87.1307    9.0259 C.3     1  UNL1        0.0914
      2 C          61.2271   86.2141    9.2127 C.ar    1  UNL1       -0.0079
      3 C          62.0246   85.7648    8.0244 C.ar    1  UNL1       -0.0032
      4 C          63.1972   84.8483    8.2112 C.ar    1  UNL1        0.0028
      5 C          63.5723   84.3810    9.5863 C.ar    1  UNL1        0.0375
      6 C          62.7748   84.8303   10.7746 C.ar    1  UNL1        0.1450
      7 C          61.6022   85.7469   10.5878 C.ar    1  UNL1        0.0341
      8 O          63.1499   84.3630   12.1497 O.3     1  UNL1       -0.4535
      9 C          62.7920   82.9758   12.5940 C.ar    1  UNL1        0.1453
     10 C          62.9726   81.8182   11.6573 C.ar    1  UNL1        0.0375
     11 C          62.6146   80.4309   12.1017 C.ar    1  UNL1        0.0031
     12 C          62.0761   80.2013   13.4827 C.ar    1  UNL1        0.0002
     13 C          61.8954   81.3588   14.4194 C.ar    1  UNL1        0.0031
     14 C          62.2534   82.7461   13.9751 C.ar    1  UNL1        0.0375
     15 S          59.8035   88.2369   10.0074 S.3     1  UNL1       -0.0709
     16 C          64.7411   92.0807   11.5725 C.2     1  UNL1        0.1223
     17 C          64.6581   91.3600   12.8853 C.2     1  UNL1        0.0343
     18 C          63.6239   90.2933   13.0913 C.2     1  UNL1        0.0232
     19 C          62.6725   89.9473   11.9844 C.2     1  UNL1        0.0975
     20 N          61.5566   88.9489   11.8954 N.2     1  UNL1       -0.2200
     21 C          60.9499   89.0526   10.5275 C.2     1  UNL1        0.1901
     22 N          61.6908   90.1150    9.7711 N.2     1  UNL1       -0.2236
     23 C          62.7555   90.6680   10.6716 C.2     1  UNL1        0.0863
     24 C          63.7897   91.7347   10.4656 C.3     1  UNL1        0.1112
     25 C          66.8433   92.9663   10.3289 C.3     1  UNL1        0.2520
     26 O          65.7753   93.1474   11.3665 O.2     1  UNL1       -0.4753
@<TRIPOS>BOND
     1    25    26    1
     2    26    16    1
     3    16    17    2
     4    17    18    1
     5    18    19    2
     6    19    20    1
     7    20    21    2
     8    21    15    1
     9    15     1    1
    10     1     2    1
    11     2     3   ar
    12     3     4   ar
    13     4     5   ar
    14     5     6   ar
    15     6     8    1
    16     8     9    1
    17     9    10   ar
    18    10    11   ar
    19    11    12   ar
    20    12    13   ar
    21    13    14   ar
    22     6     7   ar
    23    21    22    1
    24    22    23    2
    25    23    24    1
    26    24    16    1
    27    23    19    1
    28     7     2   ar
    29    14     9   ar
@<TRIPOS>MOLECULE
*****
 26 29 0 0 0
SMALL
GASTEIGER

@<TRIPOS>ATOM
      1 C          63.8022   82.2538   10.8819 C.3     1  UNL1        0.0914
      2 C          63.4076   82.4978   12.3083 C.ar    1  UNL1       -0.0079
      3 C          62.1957   81.8216   12.8774 C.ar    1  UNL1       -0.0032
      4 C          61.8011   82.0656   14.3038 C.ar    1  UNL1        0.0028
      5 C          62.6185   82.9858   15.1612 C.ar    1  UNL1        0.0375
      6 C          63.8305   83.6620   14.5921 C.ar    1  UNL1        0.1450
      7 C          64.2250   83.4180   13.1656 C.ar    1  UNL1        0.0341
      8 O          64.6479   84.5822   15.4494 O.3     1  UNL1       -0.4535
      9 C          64.1539   85.9671   15.7461 C.ar    1  UNL1        0.1453
     10 C          64.5134   87.1030   14.8348 C.ar    1  UNL1        0.0375
     11 C          64.0193   88.4879   15.1315 C.ar    1  UNL1        0.0031
     12 C          63.1658   88.7368   16.3396 C.ar    1  UNL1        0.0002
     13 C          62.8063   87.6010   17.2510 C.ar    1  UNL1        0.0031
     14 C          63.3003   86.2161   16.9543 C.ar    1  UNL1        0.0375
     15 S          64.1449   83.4102    9.9902 S.3     1  UNL1       -0.0709
     16 C          59.7777   87.8179    8.2281 C.2     1  UNL1        0.1223
     17 C          59.8956   88.2515    9.6592 C.2     1  UNL1        0.0343
     18 C          60.8281   87.5306   10.5870 C.2     1  UNL1        0.0232
     19 C          61.6428   86.3761   10.0836 C.2     1  UNL1        0.0975
     20 N          62.6385   85.4803   10.7589 N.2     1  UNL1       -0.2200
     21 C          63.1361   84.4931    9.7451 C.2     1  UNL1        0.1901
     22 N          62.4479   84.7787    8.4433 N.2     1  UNL1       -0.2236
     23 C          61.5249   85.9425    8.6526 C.2     1  UNL1        0.0863
     24 C          60.5924   86.6634    7.7248 C.3     1  UNL1        0.1112
     25 C          59.3562   89.6607    6.4458 C.3     1  UNL1        0.2520
     26 O          58.8452   88.5388    7.3004 O.2     1  UNL1       -0.4753
@<TRIPOS>BOND
     1    25    26    1
     2    26    16    1
     3    16    17    2
     4    17    18    1
     5    18    19    2
     6    19    20    1
     7    20    21    2
     8    21    15    1
     9    15     1    1
    10     1     2    1
    11     2     3   ar
    12     3     4   ar
    13     4     5   ar
    14     5     6   ar
    15     6     8    1
    16     8     9    1
    17     9    10   ar
    18    10    11   ar
    19    11    12   ar
    20    12    13   ar
    21    13    14   ar
    22     6     7   ar
    23    21    22    1
    24    22    23    2
    25    23    24    1
    26    24    16    1
    27    23    19    1
    28     7     2   ar
    29    14     9   ar
@<TRIPOS>MOLECULE
*****
 26 29 0 0 0
SMALL
GASTEIGER

@<TRIPOS>ATOM
      1 C          63.6554   82.2864   10.7814 C.3     1  UNL1        0.0914
      2 C          63.3507   82.5652   12.2234 C.ar    1  UNL1       -0.0079
      3 C          62.1958   81.8803   12.8920 C.ar    1  UNL1       -0.0032
      4 C          61.8911   82.1590   14.3340 C.ar    1  UNL1        0.0028
      5 C          62.7414   83.1228   15.1075 C.ar    1  UNL1        0.0375
      6 C          63.8964   83.8077   14.4389 C.ar    1  UNL1        0.1450
      7 C          64.2010   83.5288   12.9968 C.ar    1  UNL1        0.0341
      8 O          64.7467   84.7714   15.2124 O.3     1  UNL1       -0.4535
      9 C          64.1724   86.0802   15.6673 C.ar    1  UNL1        0.1453
     10 C          64.4057   87.3227   14.8600 C.ar    1  UNL1        0.0375
     11 C          63.8313   88.6316   15.3151 C.ar    1  UNL1        0.0031
     12 C          63.0238   88.6980   16.5774 C.ar    1  UNL1        0.0002
     13 C          62.7905   87.4554   17.3847 C.ar    1  UNL1        0.0031
     14 C          63.3648   86.1466   16.9297 C.ar    1  UNL1        0.0375
     15 S          64.0293   83.4116    9.8627 S.3     1  UNL1       -0.0709
     16 C          60.5489   88.8344   10.1547 C.2     1  UNL1        0.1223
     17 C          60.0579   88.3841    8.8107 C.2     1  UNL1        0.0343
     18 C          60.5679   87.1051    8.2158 C.2     1  UNL1        0.0232
     19 C          61.5689   86.2763    8.9648 C.2     1  UNL1        0.0975
     20 N          62.2469   84.9797    8.6342 N.2     1  UNL1       -0.2200
     21 C          63.1569   84.6287    9.7737 C.2     1  UNL1        0.1901
     22 N          63.0414   85.7082   10.8087 N.2     1  UNL1       -0.2236
     23 C          62.0599   86.7265   10.3087 C.2     1  UNL1        0.0863
     24 C          61.5499   88.0056   10.9037 C.3     1  UNL1        0.1112
     25 C          59.0978   90.0748   11.9170 C.3     1  UNL1        0.2520
     26 O          60.0389   90.1134   10.7496 O.2     1  UNL1       -0.4753
@<TRIPOS>BOND
     1    25    26    1
     2    26    16    1
     3    16    17    2
     4    17    18    1
     5    18    19    2
     6    19    20    1
     7    20    21    2
     8    21    15    1
     9    15     1    1
    10     1     2    1
    11     2     3   ar
    12     3     4   ar
    13     4     5   ar
    14     5     6   ar
    15     6     8    1
    16     8     9    1
    17     9    10   ar
    18    10    11   ar
    19    11    12   ar
    20    12    13   ar
    21    13    14   ar
    22     6     7   ar
    23    21    22    1
    24    22    23    2
    25    23    24    1
    26    24    16    1
    27    23    19    1
    28     7     2   ar
    29    14     9   ar
