@<TRIPOS>MOLECULE
*****
 26 28 0 0 0
SMALL
GASTEIGER

@<TRIPOS>ATOM
      1 C          64.3631   91.2398   12.8058 C.ar    1  UNL1        0.2570
      2 N          64.8396   92.2541   11.8088 N.ar    1  UNL1       -0.1768
      3 C          66.1690   92.9229   11.9962 C.ar    1  UNL1        0.2229
      4 N          67.0220   92.5773   13.1806 N.ar    1  UNL1       -0.2095
      5 C          66.5455   91.5630   14.1776 C.ar    1  UNL1        0.1362
      6 C          65.2160   90.8942   13.9902 C.ar    1  UNL1        0.2121
      7 F          64.7395   89.8799   14.9873 F       1  UNL1       -0.1976
      8 N          66.6455   93.9372   10.9991 N.pl3   1  UNL1       -0.2770
      9 C          66.2444   95.3754   11.1422 C.3     1  UNL1        0.1106
     10 C          66.7209   96.3898   10.1452 C.3     1  UNL1        0.0904
     11 N          67.5985   95.9659    9.0051 N.3     1  UNL1       -0.2947
     12 C          67.9997   94.5277    8.8620 C.3     1  UNL1        0.0886
     13 C          67.5232   93.5133    9.8590 C.3     1  UNL1        0.0913
     14 C          67.9244   92.0750    9.7158 C.3     1  UNL1        0.0230
     15 H          68.4605   96.5059    9.0805 H       1  UNL1        0.1233
     16 O          63.0335   90.5710   12.6183 O.3     1  UNL1       -0.4621
     17 C          62.7116   90.5145   10.0409 C.3     1  UNL1        0.0476
     18 C          62.7508   89.8033   11.3611 C.3     1  UNL1        0.1721
     19 C          62.5072   88.3246   11.4239 C.3     1  UNL1        0.0699
     20 C          61.7775   87.6365   10.3085 C.ar    1  UNL1       -0.0163
     21 C          60.3194   87.9091   10.0856 C.ar    1  UNL1       -0.0040
     22 C          59.5898   87.2211    8.9703 C.ar    1  UNL1        0.0020
     23 C          60.3182   86.2605    8.0777 C.ar    1  UNL1        0.0296
     24 C          61.7762   85.9879    8.3005 C.ar    1  UNL1        0.1398
     25 F          62.5046   85.0273    7.4080 F       1  UNL1       -0.2042
     26 C          62.5059   86.6759    9.4159 C.ar    1  UNL1        0.0255
@<TRIPOS>BOND
     1    18    17    1
     2    18    19    1
     3    19    20    1
     4    20    21   ar
     5    21    22   ar
     6    22    23   ar
     7    23    24   ar
     8    24    25    1
     9    24    26   ar
    10    18    16    1
    11    16     1    1
    12     1     2   ar
    13     2     3   ar
    14     3     8    1
    15     8     9    1
    16     9    10    1
    17    10    11    1
    18    11    12    1
    19    12    13    1
    20    13    14    1
    21     3     4   ar
    22     4     5   ar
    23     5     6   ar
    24     6     7    1
    25    26    20   ar
    26     6     1   ar
    27    13     8    1
    28    11    15    1
@<TRIPOS>MOLECULE
*****
 26 28 0 0 0
SMALL
GASTEIGER

@<TRIPOS>ATOM
      1 C          63.5300   87.9834   15.4952 C.ar    1  UNL1        0.2570
      2 N          63.7433   88.6753   14.1815 N.ar    1  UNL1       -0.1768
      3 C          63.7087   90.1731   14.1083 C.ar    1  UNL1        0.2229
      4 N          63.4607   90.9790   15.3489 N.ar    1  UNL1       -0.2095
      5 C          63.2474   90.2871   16.6626 C.ar    1  UNL1        0.1362
      6 C          63.2820   88.7893   16.7357 C.ar    1  UNL1        0.2121
      7 F          63.0687   88.0975   18.0494 F       1  UNL1       -0.1976
      8 N          63.9220   90.8649   12.7946 N.pl3   1  UNL1       -0.2770
      9 C          62.9748   90.6228   11.6570 C.3     1  UNL1        0.1106
     10 C          63.1881   91.3147   10.3433 C.3     1  UNL1        0.0904
     11 N          64.3486   92.2487   10.1672 N.3     1  UNL1       -0.2947
     12 C          65.2957   92.4907   11.3049 C.3     1  UNL1        0.0886
     13 C          65.0824   91.7989   12.6186 C.3     1  UNL1        0.0913
     14 C          66.0296   92.0410   13.7562 C.3     1  UNL1        0.0230
     15 H          63.9600   93.1558    9.9095 H       1  UNL1        0.1233
     16 O          63.5646   86.4855   15.5683 O.3     1  UNL1       -0.4621
     17 C          65.7178   85.3770   14.6275 C.3     1  UNL1        0.0476
     18 C          64.2584   85.6982   14.4965 C.3     1  UNL1        0.1721
     19 C          63.4929   85.2320   13.2938 C.3     1  UNL1        0.0699
     20 C          63.0886   83.7925   13.1737 C.ar    1  UNL1       -0.0163
     21 C          62.5151   83.0731   14.3584 C.ar    1  UNL1       -0.0040
     22 C          62.1109   81.6337   14.2382 C.ar    1  UNL1        0.0020
     23 C          62.2802   80.9135   12.9333 C.ar    1  UNL1        0.0296
     24 C          62.8537   81.6329   11.7486 C.ar    1  UNL1        0.1398
     25 F          63.0230   80.9128   10.4437 F       1  UNL1       -0.2042
     26 C          63.2579   83.0724   11.8688 C.ar    1  UNL1        0.0255
@<TRIPOS>BOND
     1    18    17    1
     2    18    19    1
     3    19    20    1
     4    20    21   ar
     5    21    22   ar
     6    22    23   ar
     7    23    24   ar
     8    24    25    1
     9    24    26   ar
    10    18    16    1
    11    16     1    1
    12     1     2   ar
    13     2     3   ar
    14     3     8    1
    15     8     9    1
    16     9    10    1
    17    10    11    1
    18    11    12    1
    19    12    13    1
    20    13    14    1
    21     3     4   ar
    22     4     5   ar
    23     5     6   ar
    24     6     7    1
    25    26    20   ar
    26     6     1   ar
    27    13     8    1
    28    11    15    1
@<TRIPOS>MOLECULE
*****
 26 28 0 0 0
SMALL
GASTEIGER

@<TRIPOS>ATOM
      1 C          61.3014   87.3197   10.8098 C.ar    1  UNL1        0.2570
      2 N          62.2706   88.0670   11.6770 N.ar    1  UNL1       -0.1768
      3 C          62.1711   89.5586   11.8000 C.ar    1  UNL1        0.2229
      4 N          61.1024   90.3029   11.0557 N.ar    1  UNL1       -0.2095
      5 C          60.1332   89.5555   10.1885 C.ar    1  UNL1        0.1362
      6 C          60.2327   88.0639   10.0655 C.ar    1  UNL1        0.2121
      7 F          59.2635   87.3165    9.1983 F       1  UNL1       -0.1976
      8 N          63.1403   90.3060   12.6672 N.pl3   1  UNL1       -0.2770
      9 C          63.1967   90.0288   14.1403 C.3     1  UNL1        0.1106
     10 C          64.1659   90.7762   15.0075 C.3     1  UNL1        0.0904
     11 N          65.0787   91.8007   14.4017 N.3     1  UNL1       -0.2947
     12 C          65.0223   92.0779   12.9286 C.3     1  UNL1        0.0886
     13 C          64.0531   91.3305   12.0614 C.3     1  UNL1        0.0913
     14 C          63.9968   91.6077   10.5882 C.3     1  UNL1        0.0230
     15 H          66.0325   91.5048   14.6093 H       1  UNL1        0.1233
     16 O          61.4009   85.8280   10.6868 O.3     1  UNL1       -0.4621
     17 C          62.7939   85.6185    8.5038 C.3     1  UNL1        0.0476
     18 C          62.5368   85.2124    9.9247 C.3     1  UNL1        0.1721
     19 C          63.4156   84.1908   10.5835 C.3     1  UNL1        0.0699
     20 C          63.0202   83.6018   11.9053 C.ar    1  UNL1       -0.0163
     21 C          63.1001   84.4336   13.1510 C.ar    1  UNL1       -0.0040
     22 C          62.7047   83.8446   14.4726 C.ar    1  UNL1        0.0020
     23 C          62.2296   82.4239   14.5486 C.ar    1  UNL1        0.0296
     24 C          62.1497   81.5921   13.3029 C.ar    1  UNL1        0.1398
     25 F          61.6746   80.1714   13.3788 F       1  UNL1       -0.2042
     26 C          62.5451   82.1811   11.9812 C.ar    1  UNL1        0.0255
@<TRIPOS>BOND
     1    18    17    1
     2    18    19    1
     3    19    20    1
     4    20    21   ar
     5    21    22   ar
     6    22    23   ar
     7    23    24   ar
     8    24    25    1
     9    24    26   ar
    10    18    16    1
    11    16     1    1
    12     1     2   ar
    13     2     3   ar
    14     3     8    1
    15     8     9    1
    16     9    10    1
    17    10    11    1
    18    11    12    1
    19    12    13    1
    20    13    14    1
    21     3     4   ar
    22     4     5   ar
    23     5     6   ar
    24     6     7    1
    25    26    20   ar
    26     6     1   ar
    27    13     8    1
    28    11    15    1
@<TRIPOS>MOLECULE
*****
 26 28 0 0 0
SMALL
GASTEIGER

@<TRIPOS>ATOM
      1 C          64.0141   87.2340   15.3936 C.ar    1  UNL1        0.2570
      2 N          64.1433   88.0605   14.1486 N.ar    1  UNL1       -0.1768
      3 C          63.5805   89.4503   14.1091 C.ar    1  UNL1        0.2229
      4 N          62.8885   90.0136   15.3148 N.ar    1  UNL1       -0.2095
      5 C          62.7592   89.1871   16.5599 C.ar    1  UNL1        0.1362
      6 C          63.3220   87.7973   16.5993 C.ar    1  UNL1        0.2121
      7 F          63.1928   86.9708   17.8444 F       1  UNL1       -0.1976
      8 N          63.7098   90.2768   12.8641 N.pl3   1  UNL1       -0.2770
      9 C          62.7774   90.0477   11.7117 C.3     1  UNL1        0.1106
     10 C          62.9066   90.8742   10.4666 C.3     1  UNL1        0.0904
     11 N          63.9682   91.9298   10.3739 N.3     1  UNL1       -0.2947
     12 C          64.9006   92.1589   11.5263 C.3     1  UNL1        0.0886
     13 C          64.7714   91.3324   12.7714 C.3     1  UNL1        0.0913
     14 C          65.7039   91.5615   13.9239 C.3     1  UNL1        0.0230
     15 H          63.4900   92.8141   10.2018 H       1  UNL1        0.1233
     16 O          64.5769   85.8441   15.4330 O.3     1  UNL1       -0.4621
     17 C          62.3986   84.4438   15.6438 C.3     1  UNL1        0.0476
     18 C          63.7335   84.6809   15.0020 C.3     1  UNL1        0.1721
     19 C          64.2249   83.7550   13.9291 C.3     1  UNL1        0.0699
     20 C          63.8330   83.9877   12.5000 C.ar    1  UNL1       -0.0163
     21 C          64.4239   83.1401   11.4127 C.ar    1  UNL1       -0.0040
     22 C          64.0319   83.3729    9.9837 C.ar    1  UNL1        0.0020
     23 C          63.0491   84.4533    9.6420 C.ar    1  UNL1        0.0296
     24 C          62.4582   85.3009   10.7294 C.ar    1  UNL1        0.1398
     25 F          61.4753   86.3813   10.3877 F       1  UNL1       -0.2042
     26 C          62.8501   85.0681   12.1584 C.ar    1  UNL1        0.0255
@<TRIPOS>BOND
     1    18    17    1
     2    18    19    1
     3    19    20    1
     4    20    21   ar
     5    21    22   ar
     6    22    23   ar
     7    23    24   ar
     8    24    25    1
     9    24    26   ar
    10    18    16    1
    11    16     1    1
    12     1     2   ar
    13     2     3   ar
    14     3     8    1
    15     8     9    1
    16     9    10    1
    17    10    11    1
    18    11    12    1
    19    12    13    1
    20    13    14    1
    21     3     4   ar
    22     4     5   ar
    23     5     6   ar
    24     6     7    1
    25    26    20   ar
    26     6     1   ar
    27    13     8    1
    28    11    15    1
@<TRIPOS>MOLECULE
*****
 26 28 0 0 0
SMALL
GASTEIGER

@<TRIPOS>ATOM
      1 C          61.1563   86.8298   10.4651 C.ar    1  UNL1        0.2570
      2 N          61.6944   86.2113   11.7213 N.ar    1  UNL1       -0.1768
      3 C          62.6769   85.0809   11.6394 C.ar    1  UNL1        0.2229
      4 N          63.1212   84.5688   10.3014 N.ar    1  UNL1       -0.2095
      5 C          62.5831   85.1873    9.0452 C.ar    1  UNL1        0.1362
      6 C          61.6007   86.3178    9.1271 C.ar    1  UNL1        0.2121
      7 F          61.0626   86.9363    7.8709 F       1  UNL1       -0.1976
      8 N          63.2150   84.4624   12.8956 N.pl3   1  UNL1       -0.2770
      9 C          63.8638   85.3244   13.9376 C.3     1  UNL1        0.1106
     10 C          64.4019   84.7059   15.1938 C.3     1  UNL1        0.0904
     11 N          64.2912   83.2254   15.4079 N.3     1  UNL1       -0.2947
     12 C          63.6423   82.3634   14.3658 C.3     1  UNL1        0.0886
     13 C          63.1042   82.9819   13.1097 C.3     1  UNL1        0.0913
     14 C          62.4553   82.1198   12.0676 C.3     1  UNL1        0.0230
     15 H          63.7642   83.0913   16.2708 H       1  UNL1        0.1233
     16 O          60.1738   87.9604   10.5470 O.3     1  UNL1       -0.4621
     17 C          59.7215   90.4507   11.1334 C.3     1  UNL1        0.0476
     18 C          60.6637   89.3708   10.6903 C.3     1  UNL1        0.1721
     19 C          62.0957   89.7015   10.3904 C.3     1  UNL1        0.0699
     20 C          63.0273   90.0794   11.5037 C.ar    1  UNL1       -0.0163
     21 C          63.7611   91.3868   11.4565 C.ar    1  UNL1       -0.0040
     22 C          64.6925   91.7646   12.5698 C.ar    1  UNL1        0.0020
     23 C          64.8902   90.8351   13.7304 C.ar    1  UNL1        0.0296
     24 C          64.1564   89.5278   13.7776 C.ar    1  UNL1        0.1398
     25 F          64.3541   88.5983   14.9382 F       1  UNL1       -0.2042
     26 C          63.2249   89.1499   12.6643 C.ar    1  UNL1        0.0255
@<TRIPOS>BOND
     1    18    17    1
     2    18    19    1
     3    19    20    1
     4    20    21   ar
     5    21    22   ar
     6    22    23   ar
     7    23    24   ar
     8    24    25    1
     9    24    26   ar
    10    18    16    1
    11    16     1    1
    12     1     2   ar
    13     2     3   ar
    14     3     8    1
    15     8     9    1
    16     9    10    1
    17    10    11    1
    18    11    12    1
    19    12    13    1
    20    13    14    1
    21     3     4   ar
    22     4     5   ar
    23     5     6   ar
    24     6     7    1
    25    26    20   ar
    26     6     1   ar
    27    13     8    1
    28    11    15    1
@<TRIPOS>MOLECULE
*****
 26 28 0 0 0
SMALL
GASTEIGER

@<TRIPOS>ATOM
      1 C          63.3870   85.0152   12.6753 C.ar    1  UNL1        0.2570
      2 N          63.2729   86.4487   13.1020 N.ar    1  UNL1       -0.1768
      3 C          64.0599   86.9461   14.2781 C.ar    1  UNL1        0.2229
      4 N          64.9611   86.0100   15.0274 N.ar    1  UNL1       -0.2095
      5 C          65.0752   84.5765   14.6007 C.ar    1  UNL1        0.1362
      6 C          64.2882   84.0791   13.4246 C.ar    1  UNL1        0.2121
      7 F          64.4023   82.6456   12.9979 F       1  UNL1       -0.1976
      8 N          63.9458   88.3796   14.7048 N.pl3   1  UNL1       -0.2770
      9 C          64.3464   89.4765   13.7634 C.3     1  UNL1        0.1106
     10 C          64.2322   90.9100   14.1901 C.3     1  UNL1        0.0904
     11 N          63.7175   91.2465   15.5582 N.3     1  UNL1       -0.2947
     12 C          63.3169   90.1496   16.4996 C.3     1  UNL1        0.0886
     13 C          63.4311   88.7161   16.0729 C.3     1  UNL1        0.0913
     14 C          63.0305   87.6192   17.0144 C.3     1  UNL1        0.0230
     15 H          62.8959   91.8365   15.4268 H       1  UNL1        0.1233
     16 O          62.5999   84.5179   11.4992 O.3     1  UNL1       -0.4621
     17 C          64.0869   82.9573   10.0487 C.3     1  UNL1        0.0476
     18 C          63.2945   84.2216   10.2031 C.3     1  UNL1        0.1721
     19 C          63.1968   85.1896    9.0614 C.3     1  UNL1        0.0699
     20 C          62.1070   86.2203    9.0432 C.ar    1  UNL1       -0.0163
     21 C          62.3163   87.5450    9.7148 C.ar    1  UNL1       -0.0040
     22 C          61.2266   88.5756    9.6965 C.ar    1  UNL1        0.0020
     23 C          59.9275   88.2814    9.0066 C.ar    1  UNL1        0.0296
     24 C          59.7182   86.9566    8.3350 C.ar    1  UNL1        0.1398
     25 F          58.4192   86.6624    7.6451 F       1  UNL1       -0.2042
     26 C          60.8080   85.9260    8.3533 C.ar    1  UNL1        0.0255
@<TRIPOS>BOND
     1    18    17    1
     2    18    19    1
     3    19    20    1
     4    20    21   ar
     5    21    22   ar
     6    22    23   ar
     7    23    24   ar
     8    24    25    1
     9    24    26   ar
    10    18    16    1
    11    16     1    1
    12     1     2   ar
    13     2     3   ar
    14     3     8    1
    15     8     9    1
    16     9    10    1
    17    10    11    1
    18    11    12    1
    19    12    13    1
    20    13    14    1
    21     3     4   ar
    22     4     5   ar
    23     5     6   ar
    24     6     7    1
    25    26    20   ar
    26     6     1   ar
    27    13     8    1
    28    11    15    1
@<TRIPOS>MOLECULE
*****
 26 28 0 0 0
SMALL
GASTEIGER

@<TRIPOS>ATOM
      1 C          61.2077   86.8707   10.8639 C.ar    1  UNL1        0.2570
      2 N          61.6244   85.8212   11.8513 N.ar    1  UNL1       -0.1768
      3 C          62.4961   84.6822   11.4122 C.ar    1  UNL1        0.2229
      4 N          62.9512   84.5928    9.9857 N.ar    1  UNL1       -0.2095
      5 C          62.5345   85.6423    8.9983 C.ar    1  UNL1        0.1362
      6 C          61.6628   86.7812    9.4374 C.ar    1  UNL1        0.2121
      7 F          61.2461   87.8307    8.4501 F       1  UNL1       -0.1976
      8 N          62.9128   83.6327   12.3996 N.pl3   1  UNL1       -0.2770
      9 C          62.5862   82.1911   12.1445 C.3     1  UNL1        0.1106
     10 C          63.0029   81.1416   13.1319 C.3     1  UNL1        0.0904
     11 N          63.7462   81.5337   14.3743 N.3     1  UNL1       -0.2947
     12 C          64.0728   82.9753   14.6294 C.3     1  UNL1        0.0886
     13 C          63.6561   84.0248   13.6420 C.3     1  UNL1        0.0913
     14 C          63.9828   85.4664   13.8971 C.3     1  UNL1        0.0230
     15 H          64.6326   81.0292   14.3587 H       1  UNL1        0.1233
     16 O          60.3360   88.0097   11.3031 O.3     1  UNL1       -0.4621
     17 C          59.8474   90.5614   11.2914 C.3     1  UNL1        0.0476
     18 C          60.8136   89.4230   11.1474 C.3     1  UNL1        0.1721
     19 C          62.2574   89.6980   10.8476 C.3     1  UNL1        0.0699
     20 C          63.2043   90.0325   11.9619 C.ar    1  UNL1       -0.0163
     21 C          63.4435   89.0443   13.0648 C.ar    1  UNL1       -0.0040
     22 C          64.3903   89.3788   14.1791 C.ar    1  UNL1        0.0020
     23 C          65.0980   90.7013   14.1904 C.ar    1  UNL1        0.0296
     24 C          64.8587   91.6894   13.0876 C.ar    1  UNL1        0.1398
     25 F          65.5664   93.0120   13.0990 F       1  UNL1       -0.2042
     26 C          63.9119   91.3550   11.9733 C.ar    1  UNL1        0.0255
@<TRIPOS>BOND
     1    18    17    1
     2    18    19    1
     3    19    20    1
     4    20    21   ar
     5    21    22   ar
     6    22    23   ar
     7    23    24   ar
     8    24    25    1
     9    24    26   ar
    10    18    16    1
    11    16     1    1
    12     1     2   ar
    13     2     3   ar
    14     3     8    1
    15     8     9    1
    16     9    10    1
    17    10    11    1
    18    11    12    1
    19    12    13    1
    20    13    14    1
    21     3     4   ar
    22     4     5   ar
    23     5     6   ar
    24     6     7    1
    25    26    20   ar
    26     6     1   ar
    27    13     8    1
    28    11    15    1
@<TRIPOS>MOLECULE
*****
 26 28 0 0 0
SMALL
GASTEIGER

@<TRIPOS>ATOM
      1 C          61.8116   88.0827    9.8209 C.ar    1  UNL1        0.2570
      2 N          62.7371   88.6800   10.8391 N.ar    1  UNL1       -0.1768
      3 C          62.3299   89.9120   11.5915 C.ar    1  UNL1        0.2229
      4 N          60.9971   90.5468   11.3258 N.ar    1  UNL1       -0.2095
      5 C          60.0716   89.9496   10.3076 C.ar    1  UNL1        0.1362
      6 C          60.4788   88.7176    9.5552 C.ar    1  UNL1        0.2121
      7 F          59.5532   88.1204    8.5370 F       1  UNL1       -0.1976
      8 N          63.2555   90.5092   12.6097 N.pl3   1  UNL1       -0.2770
      9 C          63.1536   90.0978   14.0486 C.3     1  UNL1        0.1106
     10 C          64.0792   90.6950   15.0667 C.3     1  UNL1        0.0904
     11 N          65.1066   91.7037   14.6461 N.3     1  UNL1       -0.2947
     12 C          65.2084   92.1151   13.2072 C.3     1  UNL1        0.0886
     13 C          64.2829   91.5179   12.1891 C.3     1  UNL1        0.0913
     14 C          64.3848   91.9294   10.7501 C.3     1  UNL1        0.0230
     15 H          66.0163   91.3246   14.9090 H       1  UNL1        0.1233
     16 O          62.2188   86.8506    9.0685 O.3     1  UNL1       -0.4621
     17 C          63.3404   84.5107    9.1998 C.3     1  UNL1        0.0476
     18 C          62.4674   85.5688    9.8068 C.3     1  UNL1        0.1721
     19 C          61.8429   85.3450   11.1522 C.3     1  UNL1        0.0699
     20 C          62.6620   84.7799   12.2746 C.ar    1  UNL1       -0.0163
     21 C          62.6328   83.3069   12.5566 C.ar    1  UNL1       -0.0040
     22 C          63.4518   82.7419   13.6790 C.ar    1  UNL1        0.0020
     23 C          64.3001   83.6498   14.5194 C.ar    1  UNL1        0.0296
     24 C          64.3292   85.1227   14.2374 C.ar    1  UNL1        0.1398
     25 F          65.1775   86.0306   15.0778 F       1  UNL1       -0.2042
     26 C          63.5102   85.6878   13.1150 C.ar    1  UNL1        0.0255
@<TRIPOS>BOND
     1    18    17    1
     2    18    19    1
     3    19    20    1
     4    20    21   ar
     5    21    22   ar
     6    22    23   ar
     7    23    24   ar
     8    24    25    1
     9    24    26   ar
    10    18    16    1
    11    16     1    1
    12     1     2   ar
    13     2     3   ar
    14     3     8    1
    15     8     9    1
    16     9    10    1
    17    10    11    1
    18    11    12    1
    19    12    13    1
    20    13    14    1
    21     3     4   ar
    22     4     5   ar
    23     5     6   ar
    24     6     7    1
    25    26    20   ar
    26     6     1   ar
    27    13     8    1
    28    11    15    1
@<TRIPOS>MOLECULE
*****
 26 28 0 0 0
SMALL
GASTEIGER

@<TRIPOS>ATOM
      1 C          63.4871   87.2619   13.0125 C.ar    1  UNL1        0.2570
      2 N          63.0661   85.8448   12.7588 N.ar    1  UNL1       -0.1768
      3 C          63.3910   84.7753   13.7592 C.ar    1  UNL1        0.2229
      4 N          64.1368   85.1231   15.0132 N.ar    1  UNL1       -0.2095
      5 C          64.5577   86.5403   15.2670 C.ar    1  UNL1        0.1362
      6 C          64.2329   87.6097   14.2666 C.ar    1  UNL1        0.2121
      7 F          64.6538   89.0269   14.5203 F       1  UNL1       -0.1976
      8 N          62.9700   83.3582   13.5054 N.pl3   1  UNL1       -0.2770
      9 C          62.0627   82.6603   14.4749 C.3     1  UNL1        0.1106
     10 C          61.6418   81.2431   14.2211 C.3     1  UNL1        0.0904
     11 N          62.1281   80.5238   12.9980 N.3     1  UNL1       -0.2947
     12 C          63.0353   81.2217   12.0286 C.3     1  UNL1        0.0886
     13 C          63.4563   82.6389   12.2823 C.3     1  UNL1        0.0913
     14 C          64.3636   83.3368   11.3128 C.3     1  UNL1        0.0230
     15 H          61.2999   80.2402   12.4744 H       1  UNL1        0.1233
     16 O          63.1621   88.3314   12.0121 O.3     1  UNL1       -0.4621
     17 C          61.1971   89.9253   11.4222 C.3     1  UNL1        0.0476
     18 C          61.7444   88.5362   11.5670 C.3     1  UNL1        0.1721
     19 C          60.8741   87.3521   11.2667 C.3     1  UNL1        0.0699
     20 C          60.8413   86.7774    9.8815 C.ar    1  UNL1       -0.0163
     21 C          59.6301   86.9704    9.0180 C.ar    1  UNL1       -0.0040
     22 C          59.5973   86.3958    7.6328 C.ar    1  UNL1        0.0020
     23 C          60.7757   85.6282    7.1112 C.ar    1  UNL1        0.0296
     24 C          61.9869   85.4352    7.9747 C.ar    1  UNL1        0.1398
     25 F          63.1653   84.6675    7.4531 F       1  UNL1       -0.2042
     26 C          62.0197   86.0098    9.3598 C.ar    1  UNL1        0.0255
@<TRIPOS>BOND
     1    18    17    1
     2    18    19    1
     3    19    20    1
     4    20    21   ar
     5    21    22   ar
     6    22    23   ar
     7    23    24   ar
     8    24    25    1
     9    24    26   ar
    10    18    16    1
    11    16     1    1
    12     1     2   ar
    13     2     3   ar
    14     3     8    1
    15     8     9    1
    16     9    10    1
    17    10    11    1
    18    11    12    1
    19    12    13    1
    20    13    14    1
    21     3     4   ar
    22     4     5   ar
    23     5     6   ar
    24     6     7    1
    25    26    20   ar
    26     6     1   ar
    27    13     8    1
    28    11    15    1
