@<TRIPOS>MOLECULE
*****
 48 51 0 0 0
SMALL
GASTEIGER

@<TRIPOS>ATOM
      1 C          66.1042   92.7437   12.8967 C.ar    1  UNL1        0.0088
      2 C          67.1205   93.5021   13.6979 C.ar    1  UNL1        0.0024
      3 C          67.3621   93.1442   15.1344 C.ar    1  UNL1        0.0712
      4 C          66.5872   92.0281   15.7698 C.ar    1  UNL1        0.0051
      5 C          65.5709   91.2697   14.9686 C.ar    1  UNL1        0.0142
      6 C          65.3294   91.6275   13.5321 C.ar    1  UNL1        0.0454
      7 N          64.3130   90.8691   12.7309 N.pl3   1  UNL1       -0.3043
      8 C          64.3303   89.3692   12.7246 C.3     1  UNL1        0.1123
      9 C          63.3140   88.6108   11.9235 C.3     1  UNL1        0.1149
     10 N          62.2802   89.3523   11.1287 N.am    1  UNL1       -0.2747
     11 C          61.2639   88.5939   10.3276 C.2     1  UNL1        0.2442
     12 O          60.2302   89.3353    9.5328 O.2     1  UNL1       -0.2731
     13 C          62.2629   90.8522   11.1350 C.3     1  UNL1        0.1149
     14 C          63.2793   91.6106   11.9362 C.3     1  UNL1        0.1123
     15 C          61.2812   87.0940   10.3212 C.3     1  UNL1        0.1564
     16 N          61.3045   86.3497    9.0191 N.am    1  UNL1       -0.2727
     17 C          62.4962   85.6691    8.4137 C.3     1  UNL1        0.0943
     18 C          62.0683   85.0541    7.1142 C.3     1  UNL1        0.0311
     19 C          60.6121   85.3546    6.9165 C.3     1  UNL1        0.0870
     20 C          60.1400   86.1553    8.0938 C.2     1  UNL1        0.2260
     21 O          58.7479   86.6711    8.3081 O.2     1  UNL1       -0.2749
     22 C          61.2754   86.3383   11.6169 C.3     1  UNL1        0.0564
     23 C          62.1833   85.1586   11.8013 C.ar    1  UNL1       -0.0094
     24 C          62.1210   84.0072   10.8421 C.ar    1  UNL1       -0.0025
     25 C          63.0289   82.8275   11.0265 C.ar    1  UNL1        0.0111
     26 C          63.9991   82.7993   12.1701 C.ar    1  UNL1        0.0585
     27 CL         64.9070   81.6196   12.3545 Cl      1  UNL1       -0.0822
     28 C          64.0614   83.9508   13.1294 C.ar    1  UNL1        0.0225
     29 C          63.1535   85.1305   12.9450 C.ar    1  UNL1        0.0546
     30 CL         63.2158   86.2820   13.9043 Cl      1  UNL1       -0.0825
     31 C          68.3785   93.9027   15.9356 C.3     1  UNL1        0.4186
     32 F          69.3948   94.6610   16.7367 F       1  UNL1       -0.1659
     33 F          68.7721   92.6357   16.6354 F       1  UNL1       -0.1659
     34 F          67.9848   95.1696   15.2357 F       1  UNL1       -0.1659
     35 C          65.8627   93.1015   11.4602 C.3     1  UNL1        0.0952
     36 N          65.0048   94.2828   11.1155 N.am    1  UNL1       -0.3021
     37 C          65.6097   95.4770   10.4388 C.2     1  UNL1        0.2241
     38 O          64.7518   96.6582   10.0941 O.2     1  UNL1       -0.2750
     39 H          64.0448   94.2742   11.3335 H       1  UNL1        0.1497
     40 C          67.0724   95.4900   10.1067 C.3     1  UNL1        0.1018
     41 C          67.5164   95.6199    8.6798 C.3     1  UNL1        0.0748
     42 N          66.4977   95.7086    7.5824 N.3     1  UNL1       -0.3207
     43 H          65.9853   94.8287    7.5223 H       1  UNL1        0.1189
     44 H          66.9681   95.8894    6.6956 H       1  UNL1        0.1189
     45 C          66.4790   92.2782   10.3684 C.3     1  UNL1        0.0242
     46 C          68.7386   92.3543    9.0883 C.3     1  UNL1        0.0001
     47 C          67.9631   92.0621   10.3386 C.3     1  UNL1        0.0020
     48 C          68.6716   91.5539   11.5591 C.3     1  UNL1        0.0001
@<TRIPOS>BOND
     1    46    47    1
     2    47    48    1
     3    47    45    1
     4    35    45    1
     5    35    36    1
     6    36    37   am
     7    37    38    2
     8    37    40    1
     9    40    41    1
    10    41    42    1
    11    35     1    1
    12     1     2   ar
    13     2     3   ar
    14     3    31    1
    15    31    32    1
    16    31    33    1
    17    31    34    1
    18     3     4   ar
    19     4     5   ar
    20     5     6   ar
    21     6     7    1
    22     7     8    1
    23     8     9    1
    24     9    10    1
    25    10    11   am
    26    11    12    2
    27    11    15    1
    28    15    22    1
    29    22    23    1
    30    23    24   ar
    31    24    25   ar
    32    25    26   ar
    33    26    27    1
    34    26    28   ar
    35    28    29   ar
    36    29    30    1
    37    15    16    1
    38    16    17    1
    39    17    18    1
    40    18    19    1
    41    19    20    1
    42    20    21    2
    43    10    13    1
    44    13    14    1
    45     6     1   ar
    46    14     7    1
    47    29    23   ar
    48    20    16   am
    49    36    39    1
    50    42    43    1
    51    42    44    1
@<TRIPOS>MOLECULE
*****
 48 51 0 0 0
SMALL
GASTEIGER

@<TRIPOS>ATOM
      1 C          60.9860   88.1499    9.2851 C.ar    1  UNL1        0.0088
      2 C          60.2506   89.1621    8.4577 C.ar    1  UNL1        0.0024
      3 C          59.6297   88.7566    7.1538 C.ar    1  UNL1        0.0712
      4 C          59.7443   87.3390    6.6773 C.ar    1  UNL1        0.0051
      5 C          60.4797   86.3268    7.5047 C.ar    1  UNL1        0.0142
      6 C          61.1006   86.7323    8.8085 C.ar    1  UNL1        0.0454
      7 N          61.8361   85.7200    9.6359 N.pl3   1  UNL1       -0.3043
      8 C          61.3553   85.3886   11.0176 C.3     1  UNL1        0.1123
      9 C          62.0907   84.3764   11.8449 C.3     1  UNL1        0.1149
     10 N          63.3070   83.6955   11.2906 N.am    1  UNL1       -0.2747
     11 C          64.0424   82.6833   12.1180 C.2     1  UNL1        0.2442
     12 O          65.2586   82.0025   11.5636 O.2     1  UNL1       -0.2731
     13 C          63.7878   84.0269    9.9089 C.3     1  UNL1        0.1149
     14 C          63.0523   85.0392    9.0816 C.3     1  UNL1        0.1123
     15 C          63.5617   82.3519   13.4996 C.3     1  UNL1        0.1564
     16 N          62.3426   81.4978   13.6848 N.am    1  UNL1       -0.2727
     17 C          61.1583   81.8263   14.5448 C.3     1  UNL1        0.0943
     18 C          60.1775   80.6968   14.4341 C.3     1  UNL1        0.0311
     19 C          60.7557   79.6702   13.5056 C.3     1  UNL1        0.0870
     20 C          62.0938   80.1654   13.0426 C.2     1  UNL1        0.2260
     21 O          63.0203   79.4530   12.1024 O.2     1  UNL1       -0.2749
     22 C          64.3000   82.8747   14.6961 C.3     1  UNL1        0.0564
     23 C          63.9521   84.2188   15.2638 C.ar    1  UNL1       -0.0094
     24 C          62.7251   84.3803   16.1113 C.ar    1  UNL1       -0.0025
     25 C          62.3773   85.7245   16.6790 C.ar    1  UNL1        0.0111
     26 C          63.2565   86.9072   16.3991 C.ar    1  UNL1        0.0585
     27 CL         62.9087   88.2513   16.9667 Cl      1  UNL1       -0.0822
     28 C          64.4835   86.7457   15.5515 C.ar    1  UNL1        0.0225
     29 C          64.8314   85.4015   14.9839 C.ar    1  UNL1        0.0546
     30 CL         66.0584   85.2400   14.1363 Cl      1  UNL1       -0.0825
     31 C          58.8942   89.7689    6.3265 C.3     1  UNL1        0.4186
     32 F          58.1588   90.7811    5.4991 F       1  UNL1       -0.1659
     33 F          60.1910   90.2135    5.7178 F       1  UNL1       -0.1659
     34 F          57.5974   89.3242    6.9352 F       1  UNL1       -0.1659
     35 C          61.6069   88.5554   10.5889 C.3     1  UNL1        0.0952
     36 N          60.8454   88.3792   11.8692 N.am    1  UNL1       -0.3021
     37 C          59.8742   89.4318   12.3151 C.2     1  UNL1        0.2241
     38 O          59.1127   89.2556   13.5954 O.2     1  UNL1       -0.2750
     39 H          60.9830   87.5727   12.4168 H       1  UNL1        0.1497
     40 C          59.6645   90.6605   11.4807 C.3     1  UNL1        0.1018
     41 C          58.3588   91.3961   11.5438 C.3     1  UNL1        0.0748
     42 N          58.3324   92.8457   11.9282 N.3     1  UNL1       -0.3207
     43 H          58.6317   92.9458   12.8981 H       1  UNL1        0.1189
     44 H          57.3841   93.2074   11.8259 H       1  UNL1        0.1189
     45 C          62.9893   89.1370   10.6126 C.3     1  UNL1        0.0242
     46 C          63.4065   90.9074   12.4678 C.3     1  UNL1        0.0001
     47 C          63.1953   90.5651   11.0228 C.3     1  UNL1        0.0020
     48 C          63.1900   91.6509    9.9878 C.3     1  UNL1        0.0001
@<TRIPOS>BOND
     1    46    47    1
     2    47    48    1
     3    47    45    1
     4    35    45    1
     5    35    36    1
     6    36    37   am
     7    37    38    2
     8    37    40    1
     9    40    41    1
    10    41    42    1
    11    35     1    1
    12     1     2   ar
    13     2     3   ar
    14     3    31    1
    15    31    32    1
    16    31    33    1
    17    31    34    1
    18     3     4   ar
    19     4     5   ar
    20     5     6   ar
    21     6     7    1
    22     7     8    1
    23     8     9    1
    24     9    10    1
    25    10    11   am
    26    11    12    2
    27    11    15    1
    28    15    22    1
    29    22    23    1
    30    23    24   ar
    31    24    25   ar
    32    25    26   ar
    33    26    27    1
    34    26    28   ar
    35    28    29   ar
    36    29    30    1
    37    15    16    1
    38    16    17    1
    39    17    18    1
    40    18    19    1
    41    19    20    1
    42    20    21    2
    43    10    13    1
    44    13    14    1
    45     6     1   ar
    46    14     7    1
    47    29    23   ar
    48    20    16   am
    49    36    39    1
    50    42    43    1
    51    42    44    1
@<TRIPOS>MOLECULE
*****
 48 51 0 0 0
SMALL
GASTEIGER

@<TRIPOS>ATOM
      1 C          60.7646   88.7819    8.9580 C.ar    1  UNL1        0.0088
      2 C          59.9278   89.7426    8.1663 C.ar    1  UNL1        0.0024
      3 C          59.1040   89.2472    7.0148 C.ar    1  UNL1        0.0712
      4 C          59.1170   87.7911    6.6550 C.ar    1  UNL1        0.0051
      5 C          59.9538   86.8304    7.4467 C.ar    1  UNL1        0.0142
      6 C          60.7775   87.3258    8.5982 C.ar    1  UNL1        0.0454
      7 N          61.6143   86.3650    9.3899 N.pl3   1  UNL1       -0.3043
      8 C          61.2694   86.0721   10.8200 C.3     1  UNL1        0.1123
      9 C          62.1061   85.1114   11.6117 C.3     1  UNL1        0.1149
     10 N          63.2879   84.4434   10.9733 N.am    1  UNL1       -0.2747
     11 C          64.1246   83.4827   11.7650 C.2     1  UNL1        0.2442
     12 O          65.3062   82.8148   11.1266 O.2     1  UNL1       -0.2731
     13 C          63.6328   84.7363    9.5432 C.3     1  UNL1        0.1149
     14 C          62.7960   85.6971    8.7515 C.3     1  UNL1        0.1123
     15 C          63.7797   83.1898   13.1951 C.3     1  UNL1        0.1564
     16 N          62.6335   82.2779   13.5186 N.am    1  UNL1       -0.2727
     17 C          61.5856   82.5159   14.5651 C.3     1  UNL1        0.0943
     18 C          60.6385   81.3529   14.5456 C.3     1  UNL1        0.0311
     19 C          61.1011   80.3961   13.4871 C.3     1  UNL1        0.0870
     20 C          62.3341   80.9677   12.8524 C.2     1  UNL1        0.2260
     21 O          63.1282   80.3396   11.7457 O.2     1  UNL1       -0.2749
     22 C          64.5809   83.8089   14.3018 C.3     1  UNL1        0.0564
     23 C          64.2059   85.1603   14.8339 C.ar    1  UNL1       -0.0094
     24 C          64.6619   86.3995   14.1222 C.ar    1  UNL1       -0.0025
     25 C          64.2869   87.7509   14.6543 C.ar    1  UNL1        0.0111
     26 C          63.4559   87.8631   15.8980 C.ar    1  UNL1        0.0585
     27 CL         63.0809   89.2145   16.4300 Cl      1  UNL1       -0.0822
     28 C          62.9998   86.6239   16.6097 C.ar    1  UNL1        0.0225
     29 C          63.3748   85.2725   16.0776 C.ar    1  UNL1        0.0546
     30 CL         62.9188   84.0333   16.7893 Cl      1  UNL1       -0.0825
     31 C          58.2672   90.2080    6.2231 C.3     1  UNL1        0.4186
     32 F          57.4305   91.1687    5.4314 F       1  UNL1       -0.1659
     33 F          59.5095   90.9150    5.7682 F       1  UNL1       -0.1659
     34 F          57.0250   89.5010    6.6780 F       1  UNL1       -0.1659
     35 C          61.5884   89.2773   10.1095 C.3     1  UNL1        0.0952
     36 N          62.8858   89.9851    9.8537 N.am    1  UNL1       -0.3021
     37 C          63.5239   90.7978   10.9411 C.2     1  UNL1        0.2241
     38 O          64.8215   91.5057   10.6853 O.2     1  UNL1       -0.2750
     39 H          63.3187   89.9163    8.9722 H       1  UNL1        0.1497
     40 C          62.8644   90.9027   12.2843 C.3     1  UNL1        0.1018
     41 C          63.7009   91.0406   13.5217 C.3     1  UNL1        0.0748
     42 N          64.8142   92.0448   13.5665 N.3     1  UNL1       -0.3207
     43 H          65.5387   91.7791   12.8995 H       1  UNL1        0.1189
     44 H          65.2103   92.0716   14.5061 H       1  UNL1        0.1189
     45 C          61.1146   89.0649   11.5168 C.3     1  UNL1        0.0242
     46 C          59.2875   90.9118   11.4963 C.3     1  UNL1        0.0001
     47 C          59.7610   89.5579   11.9350 C.3     1  UNL1        0.0020
     48 C          58.8811   88.6968   12.7918 C.3     1  UNL1        0.0001
@<TRIPOS>BOND
     1    46    47    1
     2    47    48    1
     3    47    45    1
     4    35    45    1
     5    35    36    1
     6    36    37   am
     7    37    38    2
     8    37    40    1
     9    40    41    1
    10    41    42    1
    11    35     1    1
    12     1     2   ar
    13     2     3   ar
    14     3    31    1
    15    31    32    1
    16    31    33    1
    17    31    34    1
    18     3     4   ar
    19     4     5   ar
    20     5     6   ar
    21     6     7    1
    22     7     8    1
    23     8     9    1
    24     9    10    1
    25    10    11   am
    26    11    12    2
    27    11    15    1
    28    15    22    1
    29    22    23    1
    30    23    24   ar
    31    24    25   ar
    32    25    26   ar
    33    26    27    1
    34    26    28   ar
    35    28    29   ar
    36    29    30    1
    37    15    16    1
    38    16    17    1
    39    17    18    1
    40    18    19    1
    41    19    20    1
    42    20    21    2
    43    10    13    1
    44    13    14    1
    45     6     1   ar
    46    14     7    1
    47    29    23   ar
    48    20    16   am
    49    36    39    1
    50    42    43    1
    51    42    44    1
@<TRIPOS>MOLECULE
*****
 48 51 0 0 0
SMALL
GASTEIGER

@<TRIPOS>ATOM
      1 C          66.0188   92.6551   12.8070 C.ar    1  UNL1        0.0088
      2 C          67.1121   93.3937   13.5204 C.ar    1  UNL1        0.0024
      3 C          67.3658   93.1353   14.9761 C.ar    1  UNL1        0.0712
      4 C          66.5262   92.1383   15.7183 C.ar    1  UNL1        0.0051
      5 C          65.4329   91.3997   15.0048 C.ar    1  UNL1        0.0142
      6 C          65.1792   91.6581   13.5492 C.ar    1  UNL1        0.0454
      7 N          64.0858   90.9194   12.8358 N.pl3   1  UNL1       -0.3043
      8 C          64.2864   90.4671   11.4197 C.3     1  UNL1        0.1123
      9 C          63.1931   89.7284   10.7063 C.3     1  UNL1        0.1149
     10 N          61.8991   89.4420   11.4089 N.am    1  UNL1       -0.2747
     11 C          60.8058   88.7033   10.6955 C.2     1  UNL1        0.2442
     12 O          59.5119   88.4169   11.3981 O.2     1  UNL1       -0.2731
     13 C          61.6985   89.8943   12.8250 C.3     1  UNL1        0.1149
     14 C          62.7919   90.6330   13.5384 C.3     1  UNL1        0.1123
     15 C          61.0065   88.2510    9.2795 C.3     1  UNL1        0.1564
     16 N          60.0990   88.7534    8.1960 N.am    1  UNL1       -0.2727
     17 C          60.2031   90.0798    7.5032 C.3     1  UNL1        0.0943
     18 C          59.0965   90.1638    6.4940 C.3     1  UNL1        0.0311
     19 C          58.3085   88.8893    6.5631 C.3     1  UNL1        0.0870
     20 C          58.9281   88.0176    7.6150 C.2     1  UNL1        0.2260
     21 O          58.4590   86.6503    8.0155 O.2     1  UNL1       -0.2749
     22 C          62.1146   87.2963    8.9469 C.3     1  UNL1        0.0564
     23 C          62.3897   86.1252    9.8428 C.ar    1  UNL1       -0.0094
     24 C          62.0988   86.2196   11.3113 C.ar    1  UNL1       -0.0025
     25 C          62.3739   85.0485   12.2072 C.ar    1  UNL1        0.0111
     26 C          62.9399   83.7829   11.6347 C.ar    1  UNL1        0.0585
     27 CL         63.2150   82.6117   12.5307 Cl      1  UNL1       -0.0822
     28 C          63.2308   83.6884   10.1662 C.ar    1  UNL1        0.0225
     29 C          62.9557   84.8595    9.2702 C.ar    1  UNL1        0.0546
     30 CL         63.2466   84.7651    7.8018 Cl      1  UNL1       -0.0825
     31 C          68.4592   93.8740   15.6895 C.3     1  UNL1        0.4186
     32 F          69.5525   94.6128   16.4028 F       1  UNL1       -0.1659
     33 F          68.0230   95.1514   15.0353 F       1  UNL1       -0.1659
     34 F          68.8954   92.5967   16.3437 F       1  UNL1       -0.1659
     35 C          65.7651   92.9135   11.3514 C.3     1  UNL1        0.0952
     36 N          64.8606   94.0354   10.9353 N.am    1  UNL1       -0.3021
     37 C          65.4442   95.3440   10.4913 C.2     1  UNL1        0.2241
     38 O          64.5396   96.4659   10.0752 O.2     1  UNL1       -0.2750
     39 H          63.8839   93.9129   10.9537 H       1  UNL1        0.1497
     40 C          66.9322   95.5306   10.4633 C.3     1  UNL1        0.1018
     41 C          67.5281   96.6982    9.7341 C.3     1  UNL1        0.0748
     42 N          67.7807   96.6109    8.2581 N.3     1  UNL1       -0.3207
     43 H          68.5005   95.9113    8.0772 H       1  UNL1        0.1189
     44 H          68.0938   97.5181    7.9126 H       1  UNL1        0.1189
     45 C          66.4159   92.0500   10.3118 C.3     1  UNL1        0.0242
     46 C          68.5251   92.5897    8.8940 C.3     1  UNL1        0.0001
     47 C          67.9077   92.0607   10.1545 C.3     1  UNL1        0.0020
     48 C          68.7818   91.5425   11.2578 C.3     1  UNL1        0.0001
@<TRIPOS>BOND
     1    46    47    1
     2    47    48    1
     3    47    45    1
     4    35    45    1
     5    35    36    1
     6    36    37   am
     7    37    38    2
     8    37    40    1
     9    40    41    1
    10    41    42    1
    11    35     1    1
    12     1     2   ar
    13     2     3   ar
    14     3    31    1
    15    31    32    1
    16    31    33    1
    17    31    34    1
    18     3     4   ar
    19     4     5   ar
    20     5     6   ar
    21     6     7    1
    22     7     8    1
    23     8     9    1
    24     9    10    1
    25    10    11   am
    26    11    12    2
    27    11    15    1
    28    15    22    1
    29    22    23    1
    30    23    24   ar
    31    24    25   ar
    32    25    26   ar
    33    26    27    1
    34    26    28   ar
    35    28    29   ar
    36    29    30    1
    37    15    16    1
    38    16    17    1
    39    17    18    1
    40    18    19    1
    41    19    20    1
    42    20    21    2
    43    10    13    1
    44    13    14    1
    45     6     1   ar
    46    14     7    1
    47    29    23   ar
    48    20    16   am
    49    36    39    1
    50    42    43    1
    51    42    44    1
@<TRIPOS>MOLECULE
*****
 48 51 0 0 0
SMALL
GASTEIGER

@<TRIPOS>ATOM
      1 C          61.7365   87.5407   10.7706 C.ar    1  UNL1        0.0088
      2 C          60.9135   86.7661    9.7844 C.ar    1  UNL1        0.0024
      3 C          60.0561   87.4910    8.7898 C.ar    1  UNL1        0.0712
      4 C          60.0218   88.9905    8.7812 C.ar    1  UNL1        0.0051
      5 C          60.8448   89.7652    9.7674 C.ar    1  UNL1        0.0142
      6 C          61.7022   89.0402   10.7620 C.ar    1  UNL1        0.0454
      7 N          62.5252   89.8150   11.7482 N.pl3   1  UNL1       -0.3043
      8 C          63.6568   90.6751   11.2689 C.3     1  UNL1        0.1123
      9 C          64.4799   91.4498   12.2550 C.3     1  UNL1        0.1149
     10 N          64.1714   91.3644   13.7205 N.am    1  UNL1       -0.2747
     11 C          64.9944   92.1391   14.7066 C.2     1  UNL1        0.2442
     12 O          64.6859   92.0536   16.1720 O.2     1  UNL1       -0.2731
     13 C          63.0398   90.5043   14.1998 C.3     1  UNL1        0.1149
     14 C          62.2167   89.7295   13.2136 C.3     1  UNL1        0.1123
     15 C          66.1260   92.9992   14.2272 C.3     1  UNL1        0.1564
     16 N          67.4054   93.0589   15.0079 N.am    1  UNL1       -0.2727
     17 C          68.1380   94.3058   15.4060 C.3     1  UNL1        0.0943
     18 C          69.3623   93.8998   16.1716 C.3     1  UNL1        0.0311
     19 C          69.3864   92.4018   16.2466 C.3     1  UNL1        0.0870
     20 C          68.1770   91.8821   15.5274 C.2     1  UNL1        0.2260
     21 O          67.8046   90.4391   15.3575 O.2     1  UNL1       -0.2749
     22 C          65.9781   93.7995   12.9673 C.3     1  UNL1        0.0564
     23 C          66.7500   93.4155   11.7398 C.ar    1  UNL1       -0.0094
     24 C          67.5758   92.1633   11.7344 C.ar    1  UNL1       -0.0025
     25 C          68.3477   91.7792   10.5069 C.ar    1  UNL1        0.0111
     26 C          68.2938   92.6474    9.2849 C.ar    1  UNL1        0.0585
     27 CL         69.0657   92.2633    8.0574 Cl      1  UNL1       -0.0822
     28 C          67.4680   93.8996    9.2903 C.ar    1  UNL1        0.0225
     29 C          66.6961   94.2837   10.5178 C.ar    1  UNL1        0.0546
     30 CL         65.8703   95.5359   10.5232 Cl      1  UNL1       -0.0825
     31 C          59.2331   86.7163    7.8036 C.3     1  UNL1        0.4186
     32 F          58.4100   85.9417    6.8175 F       1  UNL1       -0.1659
     33 F          58.3352   87.9038    7.6201 F       1  UNL1       -0.1659
     34 F          60.1309   85.5288    7.9870 F       1  UNL1       -0.1659
     35 C          62.5939   86.8158   11.7652 C.3     1  UNL1        0.0952
     36 N          63.4931   87.5883   12.6842 N.am    1  UNL1       -0.3021
     37 C          64.0222   86.9449   13.9316 C.2     1  UNL1        0.2241
     38 O          64.9215   87.7175   14.8506 O.2     1  UNL1       -0.2750
     39 H          63.7361   88.5177   12.4687 H       1  UNL1        0.1497
     40 C          63.6521   85.5289   14.2601 C.3     1  UNL1        0.1018
     41 C          64.6945   84.5815   14.7757 C.3     1  UNL1        0.0748
     42 N          66.1484   84.8650   14.5392 N.3     1  UNL1       -0.3207
     43 H          66.3473   84.8103   13.5403 H       1  UNL1        0.1189
     44 H          66.7142   84.1773   15.0366 H       1  UNL1        0.1189
     45 C          62.5521   85.3183   11.8409 C.3     1  UNL1        0.0242
     46 C          64.2006   83.3731   11.3418 C.3     1  UNL1        0.0001
     47 C          63.3312   84.4956   10.8579 C.3     1  UNL1        0.0020
     48 C          63.2408   84.7953    9.3909 C.3     1  UNL1        0.0001
@<TRIPOS>BOND
     1    46    47    1
     2    47    48    1
     3    47    45    1
     4    35    45    1
     5    35    36    1
     6    36    37   am
     7    37    38    2
     8    37    40    1
     9    40    41    1
    10    41    42    1
    11    35     1    1
    12     1     2   ar
    13     2     3   ar
    14     3    31    1
    15    31    32    1
    16    31    33    1
    17    31    34    1
    18     3     4   ar
    19     4     5   ar
    20     5     6   ar
    21     6     7    1
    22     7     8    1
    23     8     9    1
    24     9    10    1
    25    10    11   am
    26    11    12    2
    27    11    15    1
    28    15    22    1
    29    22    23    1
    30    23    24   ar
    31    24    25   ar
    32    25    26   ar
    33    26    27    1
    34    26    28   ar
    35    28    29   ar
    36    29    30    1
    37    15    16    1
    38    16    17    1
    39    17    18    1
    40    18    19    1
    41    19    20    1
    42    20    21    2
    43    10    13    1
    44    13    14    1
    45     6     1   ar
    46    14     7    1
    47    29    23   ar
    48    20    16   am
    49    36    39    1
    50    42    43    1
    51    42    44    1
@<TRIPOS>MOLECULE
*****
 48 51 0 0 0
SMALL
GASTEIGER

@<TRIPOS>ATOM
      1 C          62.0675   87.2873   11.1899 C.ar    1  UNL1        0.0088
      2 C          61.3450   86.4008   10.2193 C.ar    1  UNL1        0.0024
      3 C          60.6804   86.9945    9.0128 C.ar    1  UNL1        0.0712
      4 C          60.7382   88.4747    8.7769 C.ar    1  UNL1        0.0051
      5 C          61.4606   89.3612    9.7475 C.ar    1  UNL1        0.0142
      6 C          62.1253   88.7675   10.9541 C.ar    1  UNL1        0.0454
      7 N          62.8478   89.6540   11.9247 N.pl3   1  UNL1       -0.3043
      8 C          64.0137   90.4775   11.4637 C.3     1  UNL1        0.1123
      9 C          64.7362   91.3641   12.4343 C.3     1  UNL1        0.1149
     10 N          64.2928   91.4271   13.8660 N.am    1  UNL1       -0.2747
     11 C          65.0153   92.3136   14.8365 C.2     1  UNL1        0.2442
     12 O          64.5719   92.3765   16.2681 O.2     1  UNL1       -0.2731
     13 C          63.1269   90.6035   14.3269 C.3     1  UNL1        0.1149
     14 C          62.4044   89.7170   13.3563 C.3     1  UNL1        0.1123
     15 C          66.1811   93.1371   14.3756 C.3     1  UNL1        0.1564
     16 N          67.4646   93.1207   15.1517 N.am    1  UNL1       -0.2727
     17 C          68.2319   94.3245   15.6123 C.3     1  UNL1        0.0943
     18 C          69.4476   93.8454   16.3489 C.3     1  UNL1        0.0311
     19 C          69.4316   92.3454   16.3435 C.3     1  UNL1        0.0870
     20 C          68.2060   91.8976   15.6036 C.2     1  UNL1        0.2260
     21 O          67.7943   90.4762   15.3586 O.2     1  UNL1       -0.2749
     22 C          66.0636   93.9771   13.1384 C.3     1  UNL1        0.0564
     23 C          66.7653   93.5607   11.8797 C.ar    1  UNL1       -0.0094
     24 C          67.6203   92.3284   11.8702 C.ar    1  UNL1       -0.0025
     25 C          68.3220   91.9120   10.6115 C.ar    1  UNL1        0.0111
     26 C          68.1686   92.7280    9.3623 C.ar    1  UNL1        0.0585
     27 CL         68.8703   92.3117    8.1036 Cl      1  UNL1       -0.0822
     28 C          67.3136   93.9605    9.3718 C.ar    1  UNL1        0.0225
     29 C          66.6119   94.3768   10.6305 C.ar    1  UNL1        0.0546
     30 CL         65.7569   95.6092   10.6400 Cl      1  UNL1       -0.0825
     31 C          59.9579   86.1080    8.0421 C.3     1  UNL1        0.4186
     32 F          59.2354   85.2215    7.0715 F       1  UNL1       -0.1659
     33 F          58.6509   86.7108    8.4645 F       1  UNL1       -0.1659
     34 F          61.2648   85.5052    7.6197 F       1  UNL1       -0.1659
     35 C          62.7322   86.6936   12.3965 C.3     1  UNL1        0.0952
     36 N          62.2673   85.3731   12.9352 N.am    1  UNL1       -0.3021
     37 C          62.8976   84.1013   12.4502 C.2     1  UNL1        0.2241
     38 O          62.4327   82.7808   12.9890 O.2     1  UNL1       -0.2750
     39 H          61.5485   85.3412   13.6072 H       1  UNL1        0.1497
     40 C          63.9928   84.1500   11.4264 C.3     1  UNL1        0.1018
     41 C          63.9774   83.1998   10.2659 C.3     1  UNL1        0.0748
     42 N          63.6136   81.7604   10.4798 N.3     1  UNL1       -0.3207
     43 H          64.3246   81.3123   11.0579 H       1  UNL1        0.1189
     44 H          63.5594   81.2858    9.5786 H       1  UNL1        0.1189
     45 C          63.8617   87.4203   13.0643 C.3     1  UNL1        0.0242
     46 C          63.8491   87.7097   15.6462 C.3     1  UNL1        0.0001
     47 C          64.3319   86.9898   14.4221 C.3     1  UNL1        0.0020
     48 C          65.2851   85.8393   14.5557 C.3     1  UNL1        0.0001
@<TRIPOS>BOND
     1    46    47    1
     2    47    48    1
     3    47    45    1
     4    35    45    1
     5    35    36    1
     6    36    37   am
     7    37    38    2
     8    37    40    1
     9    40    41    1
    10    41    42    1
    11    35     1    1
    12     1     2   ar
    13     2     3   ar
    14     3    31    1
    15    31    32    1
    16    31    33    1
    17    31    34    1
    18     3     4   ar
    19     4     5   ar
    20     5     6   ar
    21     6     7    1
    22     7     8    1
    23     8     9    1
    24     9    10    1
    25    10    11   am
    26    11    12    2
    27    11    15    1
    28    15    22    1
    29    22    23    1
    30    23    24   ar
    31    24    25   ar
    32    25    26   ar
    33    26    27    1
    34    26    28   ar
    35    28    29   ar
    36    29    30    1
    37    15    16    1
    38    16    17    1
    39    17    18    1
    40    18    19    1
    41    19    20    1
    42    20    21    2
    43    10    13    1
    44    13    14    1
    45     6     1   ar
    46    14     7    1
    47    29    23   ar
    48    20    16   am
    49    36    39    1
    50    42    43    1
    51    42    44    1
@<TRIPOS>MOLECULE
*****
 48 51 0 0 0
SMALL
GASTEIGER

@<TRIPOS>ATOM
      1 C          64.7682   90.7254   13.9158 C.ar    1  UNL1        0.0088
      2 C          65.8811   91.3884   14.6719 C.ar    1  UNL1        0.0024
      3 C          66.5970   92.5639   14.0754 C.ar    1  UNL1        0.0712
      4 C          66.1998   93.0764   12.7228 C.ar    1  UNL1        0.0051
      5 C          65.0868   92.4134   11.9668 C.ar    1  UNL1        0.0142
      6 C          64.3710   91.2379   12.5633 C.ar    1  UNL1        0.0454
      7 N          63.2580   90.5750   11.8071 N.pl3   1  UNL1       -0.3043
      8 C          63.4409   90.2201   10.3612 C.3     1  UNL1        0.1123
      9 C          62.3279   89.5572    9.6050 C.3     1  UNL1        0.1149
     10 N          61.0320   89.2490   10.2948 N.am    1  UNL1       -0.2747
     11 C          59.9191   88.5861    9.5386 C.2     1  UNL1        0.2442
     12 O          58.6232   88.2780   10.2283 O.2     1  UNL1       -0.2731
     13 C          60.8491   89.6039   11.7407 C.3     1  UNL1        0.1149
     14 C          61.9621   90.2668   12.4968 C.3     1  UNL1        0.1123
     15 C          60.1020   88.2313    8.0927 C.3     1  UNL1        0.1564
     16 N          59.8669   89.2647    7.0313 N.am    1  UNL1       -0.2727
     17 C          60.9219   90.0862    6.3515 C.3     1  UNL1        0.0943
     18 C          60.2425   90.9874    5.3633 C.3     1  UNL1        0.0311
     19 C          58.7676   90.7228    5.4325 C.3     1  UNL1        0.0870
     20 C          58.5355   89.6582    6.4633 C.2     1  UNL1        0.2260
     21 O          57.2055   89.0872    6.8570 O.2     1  UNL1       -0.2749
     22 C          60.5200   86.8430    7.7082 C.3     1  UNL1        0.0564
     23 C          61.3699   86.0306    8.6397 C.ar    1  UNL1       -0.0094
     24 C          61.1280   86.0887   10.1188 C.ar    1  UNL1       -0.0025
     25 C          61.9779   85.2762   11.0503 C.ar    1  UNL1        0.0111
     26 C          63.0698   84.4058   10.5026 C.ar    1  UNL1        0.0585
     27 CL         63.9197   83.5933   11.4340 Cl      1  UNL1       -0.0822
     28 C          63.3117   84.3477    9.0233 C.ar    1  UNL1        0.0225
     29 C          62.4618   85.1601    8.0918 C.ar    1  UNL1        0.0546
     30 CL         62.7037   85.1020    6.6127 Cl      1  UNL1       -0.0825
     31 C          67.7100   93.2268   14.8316 C.3     1  UNL1        0.4186
     32 F          68.8229   93.8898   15.5877 F       1  UNL1       -0.1659
     33 F          67.1074   94.5694   14.5414 F       1  UNL1       -0.1659
     34 F          68.3126   91.8842   15.1218 F       1  UNL1       -0.1659
     35 C          64.0524   89.5499   14.5123 C.3     1  UNL1        0.0952
     36 N          62.5905   89.6463   14.8341 N.am    1  UNL1       -0.3021
     37 C          62.0687   89.0907   16.1260 C.2     1  UNL1        0.2241
     38 O          60.6067   89.1872   16.4478 O.2     1  UNL1       -0.2750
     39 H          61.9735   90.0743   14.1974 H       1  UNL1        0.1497
     40 C          63.0087   88.4386   17.0961 C.3     1  UNL1        0.1018
     41 C          62.6977   87.0763   17.6414 C.3     1  UNL1        0.0748
     42 N          61.5110   86.3159   17.1280 N.3     1  UNL1       -0.3207
     43 H          60.6548   86.8043   17.3904 H       1  UNL1        0.1189
     44 H          61.5061   85.3797   17.5328 H       1  UNL1        0.1189
     45 C          64.7984   88.2779   14.7870 C.3     1  UNL1        0.0242
     46 C          63.4996   87.0062   12.9307 C.3     1  UNL1        0.0001
     47 C          64.3325   86.9887   14.1780 C.3     1  UNL1        0.0020
     48 C          64.6996   85.6819   14.8164 C.3     1  UNL1        0.0001
@<TRIPOS>BOND
     1    46    47    1
     2    47    48    1
     3    47    45    1
     4    35    45    1
     5    35    36    1
     6    36    37   am
     7    37    38    2
     8    37    40    1
     9    40    41    1
    10    41    42    1
    11    35     1    1
    12     1     2   ar
    13     2     3   ar
    14     3    31    1
    15    31    32    1
    16    31    33    1
    17    31    34    1
    18     3     4   ar
    19     4     5   ar
    20     5     6   ar
    21     6     7    1
    22     7     8    1
    23     8     9    1
    24     9    10    1
    25    10    11   am
    26    11    12    2
    27    11    15    1
    28    15    22    1
    29    22    23    1
    30    23    24   ar
    31    24    25   ar
    32    25    26   ar
    33    26    27    1
    34    26    28   ar
    35    28    29   ar
    36    29    30    1
    37    15    16    1
    38    16    17    1
    39    17    18    1
    40    18    19    1
    41    19    20    1
    42    20    21    2
    43    10    13    1
    44    13    14    1
    45     6     1   ar
    46    14     7    1
    47    29    23   ar
    48    20    16   am
    49    36    39    1
    50    42    43    1
    51    42    44    1
@<TRIPOS>MOLECULE
*****
 48 51 0 0 0
SMALL
GASTEIGER

@<TRIPOS>ATOM
      1 C          66.4127   92.8525   12.7709 C.ar    1  UNL1        0.0088
      2 C          67.4890   93.4212   13.6472 C.ar    1  UNL1        0.0024
      3 C          67.7217   92.8513   15.0151 C.ar    1  UNL1        0.0712
      4 C          66.8781   91.7126   15.5066 C.ar    1  UNL1        0.0051
      5 C          65.8018   91.1439   14.6302 C.ar    1  UNL1        0.0142
      6 C          65.5691   91.7138   13.2624 C.ar    1  UNL1        0.0454
      7 N          64.4927   91.1450   12.3860 N.pl3   1  UNL1       -0.3043
      8 C          63.5885   90.0694   12.9110 C.3     1  UNL1        0.1123
      9 C          62.5121   89.5006   12.0348 C.3     1  UNL1        0.1149
     10 N          62.3400   90.0073   10.6334 N.am    1  UNL1       -0.2747
     11 C          61.2636   89.4385    9.7572 C.2     1  UNL1        0.2442
     12 O          61.0915   89.9452    8.3559 O.2     1  UNL1       -0.2731
     13 C          63.2442   91.0829   10.1084 C.3     1  UNL1        0.1149
     14 C          64.3206   91.6517   10.9848 C.3     1  UNL1        0.1123
     15 C          60.3594   88.3630   10.2821 C.3     1  UNL1        0.1564
     16 N          59.4663   88.6403   11.4549 N.am    1  UNL1       -0.2727
     17 C          58.9768   87.6291   12.4489 C.3     1  UNL1        0.0943
     18 C          58.1139   88.3413   13.4480 C.3     1  UNL1        0.0311
     19 C          58.0701   89.7927   13.0714 C.3     1  UNL1        0.0870
     20 C          58.9059   89.9774   11.8397 C.2     1  UNL1        0.2260
     21 O          59.1403   91.2720   11.1192 O.2     1  UNL1       -0.2749
     22 C          60.3483   87.0102    9.6344 C.3     1  UNL1        0.0564
     23 C          61.4217   86.0141    9.9594 C.ar    1  UNL1       -0.0094
     24 C          61.7833   85.7409   11.3892 C.ar    1  UNL1       -0.0025
     25 C          62.8567   84.7448   11.7142 C.ar    1  UNL1        0.0111
     26 C          63.5685   84.0220   10.6094 C.ar    1  UNL1        0.0585
     27 CL         64.6420   83.0259   10.9344 Cl      1  UNL1       -0.0822
     28 C          63.2070   84.2952    9.1794 C.ar    1  UNL1        0.0225
     29 C          62.1335   85.2913    8.8544 C.ar    1  UNL1        0.0546
     30 CL         61.7720   85.5645    7.4245 Cl      1  UNL1       -0.0825
     31 C          68.7981   93.4201   15.8914 C.3     1  UNL1        0.4186
     32 F          69.8744   93.9889   16.7677 F       1  UNL1       -0.1659
     33 F          69.2959   92.0347   16.1791 F       1  UNL1       -0.1659
     34 F          68.3003   94.8055   15.6037 F       1  UNL1       -0.1659
     35 C          66.1800   93.4224   11.4030 C.3     1  UNL1        0.0952
     36 N          65.3489   94.6601   11.2376 N.am    1  UNL1       -0.3021
     37 C          65.6434   95.6177   10.1213 C.2     1  UNL1        0.2241
     38 O          64.8122   96.8554    9.9559 O.2     1  UNL1       -0.2750
     39 H          64.6101   94.8439   11.8618 H       1  UNL1        0.1497
     40 C          66.7691   95.3376    9.1703 C.3     1  UNL1        0.1018
     41 C          66.9001   96.1361    7.9072 C.3     1  UNL1        0.0748
     42 N          65.7050   96.3465    7.0256 N.3     1  UNL1       -0.3207
     43 H          65.4108   95.4524    6.6325 H       1  UNL1        0.1189
     44 H          65.9486   96.9865    6.2697 H       1  UNL1        0.1189
     45 C          66.7784   92.7547   10.2005 C.3     1  UNL1        0.0242
     46 C          68.6337   91.3780   11.3891 C.3     1  UNL1        0.0001
     47 C          68.1886   92.2457   10.2494 C.3     1  UNL1        0.0020
     48 C          69.1537   92.6045    9.1585 C.3     1  UNL1        0.0001
@<TRIPOS>BOND
     1    46    47    1
     2    47    48    1
     3    47    45    1
     4    35    45    1
     5    35    36    1
     6    36    37   am
     7    37    38    2
     8    37    40    1
     9    40    41    1
    10    41    42    1
    11    35     1    1
    12     1     2   ar
    13     2     3   ar
    14     3    31    1
    15    31    32    1
    16    31    33    1
    17    31    34    1
    18     3     4   ar
    19     4     5   ar
    20     5     6   ar
    21     6     7    1
    22     7     8    1
    23     8     9    1
    24     9    10    1
    25    10    11   am
    26    11    12    2
    27    11    15    1
    28    15    22    1
    29    22    23    1
    30    23    24   ar
    31    24    25   ar
    32    25    26   ar
    33    26    27    1
    34    26    28   ar
    35    28    29   ar
    36    29    30    1
    37    15    16    1
    38    16    17    1
    39    17    18    1
    40    18    19    1
    41    19    20    1
    42    20    21    2
    43    10    13    1
    44    13    14    1
    45     6     1   ar
    46    14     7    1
    47    29    23   ar
    48    20    16   am
    49    36    39    1
    50    42    43    1
    51    42    44    1
