@<TRIPOS>MOLECULE
*****
 34 37 0 0 0
SMALL
GASTEIGER

@<TRIPOS>ATOM
      1 C          65.6988   91.7626   12.9955 C.ar    1  UNL1        0.0949
      2 C          65.8027   90.9986   14.2822 C.ar    1  UNL1        0.1454
      3 F          67.0639   91.0608   15.0917 F       1  UNL1       -0.2040
      4 C          64.6452   90.1725   14.7594 C.ar    1  UNL1        0.0312
      5 C          63.3839   90.1103   13.9499 C.ar    1  UNL1        0.0204
      6 C          63.2800   90.8743   12.6632 C.ar    1  UNL1        0.0924
      7 C          64.4375   91.7004   12.1861 C.ar    1  UNL1        0.1598
      8 F          64.3337   92.4644   10.8994 F       1  UNL1       -0.2026
      9 C          66.8563   92.5888   12.5183 C.2     1  UNL1        0.2007
     10 O          68.2301   91.9899   12.4563 O.2     1  UNL1       -0.2866
     11 C          67.2467   93.9275    9.4319 C.2     1  UNL1        0.1360
     12 C          67.3439   94.7515    8.1823 C.2     1  UNL1        0.0837
     13 C          67.0189   96.2153    8.2220 C.2     1  UNL1        0.2385
     14 N          66.5968   96.8552    9.5113 N.2     1  UNL1       -0.0338
     15 C          66.4996   96.0312   10.7609 C.2     1  UNL1        0.3626
     16 N          66.1141   96.3824   12.1674 N.2     1  UNL1       -0.0341
     17 C          66.2007   95.1356   12.9969 C.2     1  UNL1        0.2355
     18 C          66.6399   94.0139   12.1031 C.2     1  UNL1        0.0823
     19 C          66.8246   94.5673   10.7212 C.3     1  UNL1        0.1973
     20 C          68.8557   91.9970    8.7730 C.3     1  UNL1        0.2520
     21 O          67.5717   92.4636    9.3922 O.2     1  UNL1       -0.4746
     22 N          62.0187   90.8121   11.8538 N.pl3   1  UNL1       -0.2127
     23 H          61.3990   91.5770   11.8484 H       1  UNL1        0.1738
     24 S          61.7016   89.5843   11.0524 S.O2    1  UNL1        0.0780
     25 O          60.6550   89.1998   12.0558 O.2     1  UNL1       -0.1498
     26 O          62.7482   89.9689   10.0491 O.2     1  UNL1       -0.1498
     27 C          61.3846   88.3567   10.2511 C.ar    1  UNL1        0.1797
     28 C          60.4359   88.4417    9.0923 C.ar    1  UNL1        0.1611
     29 F          59.8042   89.7544    8.7350 F       1  UNL1       -0.2027
     30 C          60.1188   87.2141    8.2908 C.ar    1  UNL1        0.0312
     31 C          60.7504   85.9013    8.6481 C.ar    1  UNL1        0.0047
     32 C          61.6992   85.8163    9.8069 C.ar    1  UNL1        0.0312
     33 C          62.0163   87.0439   10.6084 C.ar    1  UNL1        0.1611
     34 F          62.9650   86.9588   11.7671 F       1  UNL1       -0.2027
@<TRIPOS>BOND
     1    20    21    1
     2    21    11    1
     3    11    12    2
     4    12    13    1
     5    13    14    2
     6    14    15    1
     7    15    16    2
     8    16    17    1
     9    17    18    2
    10    18     9    1
    11     9    10    2
    12     9     1    1
    13     1     2   ar
    14     2     3    1
    15     2     4   ar
    16     4     5   ar
    17     5     6   ar
    18     6    22    1
    19    22    24    1
    20    24    25    2
    21    24    26    2
    22    24    27    1
    23    27    28   ar
    24    28    29    1
    25    28    30   ar
    26    30    31   ar
    27    31    32   ar
    28    32    33   ar
    29    33    34    1
    30     6     7   ar
    31     7     8    1
    32    18    19    1
    33    19    11    1
    34    19    15    1
    35     7     1   ar
    36    33    27   ar
    37    22    23    1
@<TRIPOS>MOLECULE
*****
 34 37 0 0 0
SMALL
GASTEIGER

@<TRIPOS>ATOM
      1 C          61.6069   88.5104   10.6796 C.ar    1  UNL1        0.0949
      2 C          60.5806   88.6350    9.5927 C.ar    1  UNL1        0.1454
      3 F          59.7075   89.8526    9.5216 F       1  UNL1       -0.2040
      4 C          60.4275   87.5419    8.5770 C.ar    1  UNL1        0.0312
      5 C          61.3006   86.3243    8.6481 C.ar    1  UNL1        0.0204
      6 C          62.3269   86.1997    9.7350 C.ar    1  UNL1        0.0924
      7 C          62.4800   87.2928   10.7507 C.ar    1  UNL1        0.1598
      8 F          63.5062   87.1683   11.8376 F       1  UNL1       -0.2026
      9 C          61.7600   89.6035   11.6954 C.2     1  UNL1        0.2007
     10 O          60.7950   89.7048   12.8392 O.2     1  UNL1       -0.2866
     11 C          63.9458   90.5792   14.0914 C.2     1  UNL1        0.1360
     12 C          65.0175   91.1691   14.9594 C.2     1  UNL1        0.0837
     13 C          65.9697   92.1801   14.3927 C.2     1  UNL1        0.2385
     14 N          65.8503   92.6012   12.9580 N.2     1  UNL1       -0.0338
     15 C          64.7787   92.0113   12.0900 C.2     1  UNL1        0.3626
     16 N          64.4189   92.2309   10.6504 N.2     1  UNL1       -0.0341
     17 C          63.2443   91.3558   10.3274 C.2     1  UNL1        0.2355
     18 C          62.8781   90.5952   11.5673 C.2     1  UNL1        0.0823
     19 C          63.8264   91.0003   12.6567 C.3     1  UNL1        0.1973
     20 C          63.0489   89.2206   16.1161 C.3     1  UNL1        0.2520
     21 O          62.9936   89.5682   14.6580 O.2     1  UNL1       -0.4746
     22 N          63.2000   84.9821    9.8061 N.pl3   1  UNL1       -0.2127
     23 H          63.8895   84.8300    9.1200 H       1  UNL1        0.1738
     24 S          63.0226   83.9962   10.9226 S.O2    1  UNL1        0.0780
     25 O          64.4093   83.4766   10.6840 O.2     1  UNL1       -0.1498
     26 O          61.6359   84.5158   11.1611 O.2     1  UNL1       -0.1498
     27 C          62.8451   83.0103   12.0390 C.ar    1  UNL1        0.1797
     28 C          62.7204   83.4936   13.4536 C.ar    1  UNL1        0.1611
     29 F          62.7731   84.9628   13.7515 F       1  UNL1       -0.2027
     30 C          62.5429   82.5078   14.5701 C.ar    1  UNL1        0.0312
     31 C          62.4901   81.0387   14.2721 C.ar    1  UNL1        0.0047
     32 C          62.6148   80.5554   12.8576 C.ar    1  UNL1        0.0312
     33 C          62.7923   81.5412   11.7410 C.ar    1  UNL1        0.1611
     34 F          62.9170   81.0578   10.3265 F       1  UNL1       -0.2027
@<TRIPOS>BOND
     1    20    21    1
     2    21    11    1
     3    11    12    2
     4    12    13    1
     5    13    14    2
     6    14    15    1
     7    15    16    2
     8    16    17    1
     9    17    18    2
    10    18     9    1
    11     9    10    2
    12     9     1    1
    13     1     2   ar
    14     2     3    1
    15     2     4   ar
    16     4     5   ar
    17     5     6   ar
    18     6    22    1
    19    22    24    1
    20    24    25    2
    21    24    26    2
    22    24    27    1
    23    27    28   ar
    24    28    29    1
    25    28    30   ar
    26    30    31   ar
    27    31    32   ar
    28    32    33   ar
    29    33    34    1
    30     6     7   ar
    31     7     8    1
    32    18    19    1
    33    19    11    1
    34    19    15    1
    35     7     1   ar
    36    33    27   ar
    37    22    23    1
@<TRIPOS>MOLECULE
*****
 34 37 0 0 0
SMALL
GASTEIGER

@<TRIPOS>ATOM
      1 C          63.9400   89.2101   15.4340 C.ar    1  UNL1        0.0949
      2 C          63.4984   88.6367   16.7478 C.ar    1  UNL1        0.1454
      3 F          63.2728   89.5411   17.9230 F       1  UNL1       -0.2040
      4 C          63.2824   87.1588   16.8864 C.ar    1  UNL1        0.0312
      5 C          63.5080   86.2544   15.7112 C.ar    1  UNL1        0.0204
      6 C          63.9497   86.8278   14.3973 C.ar    1  UNL1        0.0924
      7 C          64.1656   88.3056   14.2588 C.ar    1  UNL1        0.1598
      8 F          64.6073   88.8792   12.9449 F       1  UNL1       -0.2026
      9 C          64.1560   90.6880   15.2953 C.2     1  UNL1        0.2007
     10 O          63.1340   91.6484   15.8271 O.2     1  UNL1       -0.2866
     11 C          64.4749   91.8017   12.1128 C.2     1  UNL1        0.1360
     12 C          64.8748   92.3359   10.7694 C.2     1  UNL1        0.0837
     13 C          66.2925   92.7588   10.5221 C.2     1  UNL1        0.2385
     14 N          67.3104   92.6476   11.6182 N.2     1  UNL1       -0.0338
     15 C          66.9106   92.1134   12.9616 C.2     1  UNL1        0.3626
     16 N          67.6880   91.8897   14.2248 N.2     1  UNL1       -0.0341
     17 C          66.7508   91.3285   15.2527 C.2     1  UNL1        0.2355
     18 C          65.3941   91.2054   14.6249 C.2     1  UNL1        0.0823
     19 C          65.4928   91.6905   13.2089 C.3     1  UNL1        0.1973
     20 C          62.3073   90.6173   11.3077 C.3     1  UNL1        0.2520
     21 O          63.0572   91.3788   12.3601 O.2     1  UNL1       -0.4746
     22 N          64.1753   85.9234   13.2221 N.pl3   1  UNL1       -0.2127
     23 H          64.6838   86.2458   12.4433 H       1  UNL1        0.1738
     24 S          63.6261   84.5276   13.2337 S.O2    1  UNL1        0.0780
     25 O          62.3047   85.0435   12.7461 O.2     1  UNL1       -0.1498
     26 O          64.9475   84.0117   13.7213 O.2     1  UNL1       -0.1498
     27 C          63.0770   83.1318   13.2452 C.ar    1  UNL1        0.1797
     28 C          63.3511   82.2084   12.0952 C.ar    1  UNL1        0.1611
     29 F          64.1743   82.6810   10.9338 F       1  UNL1       -0.2027
     30 C          62.8020   80.8126   12.1067 C.ar    1  UNL1        0.0312
     31 C          61.9788   80.3400   13.2682 C.ar    1  UNL1        0.0047
     32 C          61.7047   81.2634   14.4181 C.ar    1  UNL1        0.0312
     33 C          62.2538   82.6592   14.4067 C.ar    1  UNL1        0.1611
     34 F          61.9796   83.5824   15.5567 F       1  UNL1       -0.2027
@<TRIPOS>BOND
     1    20    21    1
     2    21    11    1
     3    11    12    2
     4    12    13    1
     5    13    14    2
     6    14    15    1
     7    15    16    2
     8    16    17    1
     9    17    18    2
    10    18     9    1
    11     9    10    2
    12     9     1    1
    13     1     2   ar
    14     2     3    1
    15     2     4   ar
    16     4     5   ar
    17     5     6   ar
    18     6    22    1
    19    22    24    1
    20    24    25    2
    21    24    26    2
    22    24    27    1
    23    27    28   ar
    24    28    29    1
    25    28    30   ar
    26    30    31   ar
    27    31    32   ar
    28    32    33   ar
    29    33    34    1
    30     6     7   ar
    31     7     8    1
    32    18    19    1
    33    19    11    1
    34    19    15    1
    35     7     1   ar
    36    33    27   ar
    37    22    23    1
@<TRIPOS>MOLECULE
*****
 34 37 0 0 0
SMALL
GASTEIGER

@<TRIPOS>ATOM
      1 C          63.6518   88.9214   15.4253 C.ar    1  UNL1        0.0949
      2 C          63.1948   88.4912   16.7877 C.ar    1  UNL1        0.1454
      3 F          62.6919   89.5104   17.7666 F       1  UNL1       -0.2040
      4 C          63.2409   87.0418   17.1710 C.ar    1  UNL1        0.0312
      5 C          63.7438   86.0226   16.1921 C.ar    1  UNL1        0.0204
      6 C          64.2008   86.4529   14.8297 C.ar    1  UNL1        0.0924
      7 C          64.1548   87.9023   14.4463 C.ar    1  UNL1        0.1598
      8 F          64.6117   88.3326   13.0840 F       1  UNL1       -0.2026
      9 C          63.6058   90.3710   15.0418 C.2     1  UNL1        0.2007
     10 O          63.5698   91.4274   16.1060 O.2     1  UNL1       -0.2866
     11 C          66.0050   92.0442   13.3347 C.2     1  UNL1        0.1360
     12 C          66.9010   92.7596   12.3677 C.2     1  UNL1        0.0837
     13 C          66.4743   92.9377   10.9407 C.2     1  UNL1        0.2385
     14 N          65.1516   92.4003   10.4808 N.2     1  UNL1       -0.0338
     15 C          64.2556   91.6849   11.4478 C.2     1  UNL1        0.3626
     16 N          62.9054   91.0520   11.2854 N.2     1  UNL1       -0.0341
     17 C          62.4976   90.4827   12.6119 C.2     1  UNL1        0.2355
     18 C          63.5958   90.7638   13.5942 C.2     1  UNL1        0.0823
     19 C          64.6823   91.5068   12.8748 C.3     1  UNL1        0.1973
     20 C          67.0304   93.0170   15.5147 C.3     1  UNL1        0.2520
     21 O          66.4317   91.8661   14.7617 O.2     1  UNL1       -0.4746
     22 N          64.7037   85.4337   13.8508 N.pl3   1  UNL1       -0.2127
     23 H          65.5077   85.6212   13.3143 H       1  UNL1        0.1738
     24 S          63.9818   84.1288   13.6892 S.O2    1  UNL1        0.0780
     25 O          64.9875   83.4621   14.5804 O.2     1  UNL1       -0.1498
     26 O          62.9762   84.7955   12.7981 O.2     1  UNL1       -0.1498
     27 C          63.2599   82.8240   13.5276 C.ar    1  UNL1        0.1797
     28 C          63.6451   81.8855   12.4227 C.ar    1  UNL1        0.1611
     29 F          64.7524   82.2519   11.4794 F       1  UNL1       -0.2027
     30 C          62.9232   80.5806   12.2610 C.ar    1  UNL1        0.0312
     31 C          61.8160   80.2142   13.2043 C.ar    1  UNL1        0.0047
     32 C          61.4308   81.1527   14.3092 C.ar    1  UNL1        0.0312
     33 C          62.1527   82.4575   14.4709 C.ar    1  UNL1        0.1611
     34 F          61.7674   83.3960   15.5759 F       1  UNL1       -0.2027
@<TRIPOS>BOND
     1    20    21    1
     2    21    11    1
     3    11    12    2
     4    12    13    1
     5    13    14    2
     6    14    15    1
     7    15    16    2
     8    16    17    1
     9    17    18    2
    10    18     9    1
    11     9    10    2
    12     9     1    1
    13     1     2   ar
    14     2     3    1
    15     2     4   ar
    16     4     5   ar
    17     5     6   ar
    18     6    22    1
    19    22    24    1
    20    24    25    2
    21    24    26    2
    22    24    27    1
    23    27    28   ar
    24    28    29    1
    25    28    30   ar
    26    30    31   ar
    27    31    32   ar
    28    32    33   ar
    29    33    34    1
    30     6     7   ar
    31     7     8    1
    32    18    19    1
    33    19    11    1
    34    19    15    1
    35     7     1   ar
    36    33    27   ar
    37    22    23    1
@<TRIPOS>MOLECULE
*****
 34 37 0 0 0
SMALL
GASTEIGER

@<TRIPOS>ATOM
      1 C          63.5290   89.6227   12.2638 C.ar    1  UNL1        0.0949
      2 C          62.6726   89.3451   11.0640 C.ar    1  UNL1        0.1454
      3 F          62.3209   90.4567   10.1202 F       1  UNL1       -0.2040
      4 C          62.1680   87.9560   10.8080 C.ar    1  UNL1        0.0312
      5 C          62.5197   86.8444   11.7518 C.ar    1  UNL1        0.0204
      6 C          63.3761   87.1220   12.9516 C.ar    1  UNL1        0.0924
      7 C          63.8807   88.5112   13.2076 C.ar    1  UNL1        0.1598
      8 F          64.7371   88.7889   14.4074 F       1  UNL1       -0.2026
      9 C          64.0337   91.0120   12.5198 C.2     1  UNL1        0.2007
     10 O          64.1342   91.9934   11.3900 O.2     1  UNL1       -0.2866
     11 C          67.0312   92.2221   13.5300 C.2     1  UNL1        0.1360
     12 C          68.2451   92.7676   14.2221 C.2     1  UNL1        0.0837
     13 C          68.2076   93.0432   15.6961 C.2     1  UNL1        0.2385
     14 N          66.9562   92.7735   16.4780 N.2     1  UNL1       -0.0338
     15 C          65.7424   92.2280   15.7858 C.2     1  UNL1        0.3626
     16 N          64.3772   91.8656   16.2906 N.2     1  UNL1       -0.0341
     17 C          63.5709   91.3659   15.1286 C.2     1  UNL1        0.2355
     18 C          64.4378   91.4196   13.9057 C.2     1  UNL1        0.0823
     19 C          65.7799   91.9524   14.3119 C.3     1  UNL1        0.1973
     20 C          67.1749   93.0830   11.0829 C.3     1  UNL1        0.2520
     21 O          67.0687   91.9465   12.0560 O.2     1  UNL1       -0.4746
     22 N          63.7279   86.0105   13.8954 N.pl3   1  UNL1       -0.2127
     23 H          64.1463   86.2151   14.7627 H       1  UNL1        0.1738
     24 S          63.4420   84.5873   13.5177 S.O2    1  UNL1        0.0780
     25 O          64.9143   84.3162   13.4248 O.2     1  UNL1       -0.1498
     26 O          61.9696   84.8584   13.6106 O.2     1  UNL1       -0.1498
     27 C          63.1560   83.1641   13.1400 C.ar    1  UNL1        0.1797
     28 C          62.6796   82.1934   14.1797 C.ar    1  UNL1        0.1611
     29 F          62.4892   82.6461   15.5970 F       1  UNL1       -0.2027
     30 C          62.3936   80.7702   13.8020 C.ar    1  UNL1        0.0312
     31 C          62.5840   80.3175   12.3847 C.ar    1  UNL1        0.0047
     32 C          63.0604   81.2882   11.3450 C.ar    1  UNL1        0.0312
     33 C          63.3464   82.7114   11.7227 C.ar    1  UNL1        0.1611
     34 F          63.8228   83.6820   10.6829 F       1  UNL1       -0.2027
@<TRIPOS>BOND
     1    20    21    1
     2    21    11    1
     3    11    12    2
     4    12    13    1
     5    13    14    2
     6    14    15    1
     7    15    16    2
     8    16    17    1
     9    17    18    2
    10    18     9    1
    11     9    10    2
    12     9     1    1
    13     1     2   ar
    14     2     3    1
    15     2     4   ar
    16     4     5   ar
    17     5     6   ar
    18     6    22    1
    19    22    24    1
    20    24    25    2
    21    24    26    2
    22    24    27    1
    23    27    28   ar
    24    28    29    1
    25    28    30   ar
    26    30    31   ar
    27    31    32   ar
    28    32    33   ar
    29    33    34    1
    30     6     7   ar
    31     7     8    1
    32    18    19    1
    33    19    11    1
    34    19    15    1
    35     7     1   ar
    36    33    27   ar
    37    22    23    1
@<TRIPOS>MOLECULE
*****
 34 37 0 0 0
SMALL
GASTEIGER

@<TRIPOS>ATOM
      1 C          62.8544   89.4092   11.6488 C.ar    1  UNL1        0.0949
      2 C          62.2071   88.9323   10.3825 C.ar    1  UNL1        0.1454
      3 F          61.7085   89.9254    9.3750 F       1  UNL1       -0.2040
      4 C          62.0584   87.4623   10.1238 C.ar    1  UNL1        0.0312
      5 C          62.5570   86.4692   11.1314 C.ar    1  UNL1        0.0204
      6 C          63.2044   86.9461   12.3977 C.ar    1  UNL1        0.0924
      7 C          63.3530   88.4161   12.6564 C.ar    1  UNL1        0.1598
      8 F          64.0004   88.8931   13.9227 F       1  UNL1       -0.2026
      9 C          63.0031   90.8793   11.9076 C.2     1  UNL1        0.2007
     10 O          61.7930   91.7149   12.2027 O.2     1  UNL1       -0.2866
     11 C          64.9120   91.8352   14.5367 C.2     1  UNL1        0.1360
     12 C          65.9345   92.3368   15.5129 C.2     1  UNL1        0.0837
     13 C          67.2210   92.9260   15.0150 C.2     1  UNL1        0.2385
     14 N          67.4850   93.0137   13.5411 N.2     1  UNL1       -0.0338
     15 C          66.4625   92.5121   12.5649 C.2     1  UNL1        0.3626
     16 N          66.4435   92.4668   11.0657 N.2     1  UNL1       -0.0341
     17 C          65.1453   91.8497   10.6370 C.2     1  UNL1        0.2355
     18 C          64.3620   91.5135   11.8712 C.2     1  UNL1        0.0823
     19 C          65.1760   91.9229   13.0628 C.3     1  UNL1        0.1973
     20 C          63.5440   90.6899   16.4252 C.3     1  UNL1        0.2520
     21 O          63.6256   91.2460   15.0346 O.2     1  UNL1       -0.4746
     22 N          63.7030   85.9530   13.4052 N.pl3   1  UNL1       -0.2127
     23 H          64.2369   86.2577   14.1742 H       1  UNL1        0.1738
     24 S          63.3882   84.4956   13.2411 S.O2    1  UNL1        0.0780
     25 O          61.9219   84.8052   13.3052 O.2     1  UNL1       -0.1498
     26 O          64.8545   84.1861   13.1769 O.2     1  UNL1       -0.1498
     27 C          63.0735   83.0383   13.0770 C.ar    1  UNL1        0.1797
     28 C          63.1758   82.3965   11.7250 C.ar    1  UNL1        0.1611
     29 F          63.5928   83.2122   10.5373 F       1  UNL1       -0.2027
     30 C          62.8611   80.9391   11.5608 C.ar    1  UNL1        0.0312
     31 C          62.4440   80.1234   12.7485 C.ar    1  UNL1        0.0047
     32 C          62.3417   80.7652   14.1005 C.ar    1  UNL1        0.0312
     33 C          62.6564   82.2226   14.2647 C.ar    1  UNL1        0.1611
     34 F          62.5541   82.8643   15.6166 F       1  UNL1       -0.2027
@<TRIPOS>BOND
     1    20    21    1
     2    21    11    1
     3    11    12    2
     4    12    13    1
     5    13    14    2
     6    14    15    1
     7    15    16    2
     8    16    17    1
     9    17    18    2
    10    18     9    1
    11     9    10    2
    12     9     1    1
    13     1     2   ar
    14     2     3    1
    15     2     4   ar
    16     4     5   ar
    17     5     6   ar
    18     6    22    1
    19    22    24    1
    20    24    25    2
    21    24    26    2
    22    24    27    1
    23    27    28   ar
    24    28    29    1
    25    28    30   ar
    26    30    31   ar
    27    31    32   ar
    28    32    33   ar
    29    33    34    1
    30     6     7   ar
    31     7     8    1
    32    18    19    1
    33    19    11    1
    34    19    15    1
    35     7     1   ar
    36    33    27   ar
    37    22    23    1
@<TRIPOS>MOLECULE
*****
 34 37 0 0 0
SMALL
GASTEIGER

@<TRIPOS>ATOM
      1 C          61.7641   89.2098   10.2554 C.ar    1  UNL1        0.0949
      2 C          60.4690   89.4095    9.5254 C.ar    1  UNL1        0.1454
      3 F          59.8965   90.7880    9.3772 F       1  UNL1       -0.2040
      4 C          59.7465   88.2307    8.9437 C.ar    1  UNL1        0.0312
      5 C          60.3190   86.8522    9.0920 C.ar    1  UNL1        0.0204
      6 C          61.6141   86.6525    9.8219 C.ar    1  UNL1        0.0924
      7 C          62.3366   87.8313   10.4036 C.ar    1  UNL1        0.1598
      8 F          63.6317   87.6316   11.1337 F       1  UNL1       -0.2026
      9 C          62.4867   90.3886   10.8372 C.2     1  UNL1        0.2007
     10 O          62.8715   91.5410    9.9576 O.2     1  UNL1       -0.2866
     11 C          65.0612   91.9980   12.3379 C.2     1  UNL1        0.1360
     12 C          66.1015   92.6064   13.2308 C.2     1  UNL1        0.0837
     13 C          66.0582   92.3594   14.7097 C.2     1  UNL1        0.2385
     14 N          64.9744   91.5038   15.2957 N.2     1  UNL1       -0.0338
     15 C          63.9340   90.8953   14.4028 C.2     1  UNL1        0.3626
     16 N          62.7542   90.0151   14.6912 N.2     1  UNL1       -0.0341
     17 C          62.0684   89.7181   13.3907 C.2     1  UNL1        0.2355
     18 C          62.8244   90.4148   12.2984 C.2     1  UNL1        0.0823
     19 C          63.9774   91.1424   12.9239 C.3     1  UNL1        0.1973
     20 C          65.9376   93.3650   10.3099 C.3     1  UNL1        0.2520
     21 O          65.1046   92.2450   10.8591 O.2     1  UNL1       -0.4746
     22 N          62.1866   85.2740    9.9702 N.pl3   1  UNL1       -0.2127
     23 H          62.3006   84.7005    9.1781 H       1  UNL1        0.1738
     24 S          62.5855   84.7693   11.3252 S.O2    1  UNL1        0.0780
     25 O          63.7004   83.9816   10.7036 O.2     1  UNL1       -0.1498
     26 O          61.4706   85.5571   11.9468 O.2     1  UNL1       -0.1498
     27 C          62.9843   84.2647   12.6803 C.ar    1  UNL1        0.1797
     28 C          62.7353   82.8325   13.0504 C.ar    1  UNL1        0.1611
     29 F          62.0876   81.9051   12.0654 F       1  UNL1       -0.2027
     30 C          63.1341   82.3278   14.4055 C.ar    1  UNL1        0.0312
     31 C          63.7819   83.2552   15.3905 C.ar    1  UNL1        0.0047
     32 C          64.0308   84.6874   15.0204 C.ar    1  UNL1        0.0312
     33 C          63.6321   85.1921   13.6653 C.ar    1  UNL1        0.1611
     34 F          63.8811   86.6243   13.2953 F       1  UNL1       -0.2027
@<TRIPOS>BOND
     1    20    21    1
     2    21    11    1
     3    11    12    2
     4    12    13    1
     5    13    14    2
     6    14    15    1
     7    15    16    2
     8    16    17    1
     9    17    18    2
    10    18     9    1
    11     9    10    2
    12     9     1    1
    13     1     2   ar
    14     2     3    1
    15     2     4   ar
    16     4     5   ar
    17     5     6   ar
    18     6    22    1
    19    22    24    1
    20    24    25    2
    21    24    26    2
    22    24    27    1
    23    27    28   ar
    24    28    29    1
    25    28    30   ar
    26    30    31   ar
    27    31    32   ar
    28    32    33   ar
    29    33    34    1
    30     6     7   ar
    31     7     8    1
    32    18    19    1
    33    19    11    1
    34    19    15    1
    35     7     1   ar
    36    33    27   ar
    37    22    23    1
@<TRIPOS>MOLECULE
*****
 34 37 0 0 0
SMALL
GASTEIGER

@<TRIPOS>ATOM
      1 C          64.1029   89.8561   14.5716 C.ar    1  UNL1        0.0949
      2 C          63.4076   89.9641   15.8964 C.ar    1  UNL1        0.1454
      3 F          62.3811   88.9437   16.2901 F       1  UNL1       -0.2040
      4 C          63.7390   91.0925   16.8274 C.ar    1  UNL1        0.0312
      5 C          64.7655   92.1129   16.4337 C.ar    1  UNL1        0.0204
      6 C          65.4608   92.0049   15.1090 C.ar    1  UNL1        0.0924
      7 C          65.1294   90.8765   14.1780 C.ar    1  UNL1        0.1598
      8 F          65.8247   90.7684   12.8532 F       1  UNL1       -0.2026
      9 C          63.7716   88.7277   13.6405 C.2     1  UNL1        0.2007
     10 O          64.1378   87.3203   14.0077 O.2     1  UNL1       -0.2866
     11 C          62.3469   86.4910   11.5339 C.2     1  UNL1        0.1360
     12 C          61.6554   85.7169   10.4510 C.2     1  UNL1        0.0837
     13 C          61.0719   86.4356    9.2708 C.2     1  UNL1        0.2385
     14 N          61.1798   87.9285    9.1734 N.2     1  UNL1       -0.0338
     15 C          61.8713   88.7027   10.2562 C.2     1  UNL1        0.3626
     16 N          62.1299   90.1697   10.4326 N.2     1  UNL1       -0.0341
     17 C          62.8732   90.3576   11.7218 C.2     1  UNL1        0.2355
     18 C          63.0740   89.0068   12.3422 C.2     1  UNL1        0.0823
     19 C          62.4548   87.9839   11.4364 C.3     1  UNL1        0.1973
     20 C          62.7684   84.2867   12.8426 C.3     1  UNL1        0.2520
     21 O          62.9304   85.7723   12.7141 O.2     1  UNL1       -0.4746
     22 N          66.4873   93.0253   14.7153 N.pl3   1  UNL1       -0.2127
     23 H          66.9585   93.5423   15.4082 H       1  UNL1        0.1738
     24 S          66.7961   93.2581   13.2660 S.O2    1  UNL1        0.0780
     25 O          65.3886   93.7256   13.0413 O.2     1  UNL1       -0.1498
     26 O          68.2035   92.7906   13.4907 O.2     1  UNL1       -0.1498
     27 C          67.1048   93.4908   11.8168 C.ar    1  UNL1        0.1797
     28 C          67.8423   92.4480   11.0302 C.ar    1  UNL1        0.1611
     29 F          68.2710   91.1725   11.6930 F       1  UNL1       -0.2027
     30 C          68.1512   92.6807    9.5809 C.ar    1  UNL1        0.0312
     31 C          67.7225   93.9562    8.9181 C.ar    1  UNL1        0.0047
     32 C          66.9850   94.9990    9.7047 C.ar    1  UNL1        0.0312
     33 C          66.6762   94.7663   11.1540 C.ar    1  UNL1        0.1611
     34 F          65.9387   95.8092   11.9405 F       1  UNL1       -0.2027
@<TRIPOS>BOND
     1    20    21    1
     2    21    11    1
     3    11    12    2
     4    12    13    1
     5    13    14    2
     6    14    15    1
     7    15    16    2
     8    16    17    1
     9    17    18    2
    10    18     9    1
    11     9    10    2
    12     9     1    1
    13     1     2   ar
    14     2     3    1
    15     2     4   ar
    16     4     5   ar
    17     5     6   ar
    18     6    22    1
    19    22    24    1
    20    24    25    2
    21    24    26    2
    22    24    27    1
    23    27    28   ar
    24    28    29    1
    25    28    30   ar
    26    30    31   ar
    27    31    32   ar
    28    32    33   ar
    29    33    34    1
    30     6     7   ar
    31     7     8    1
    32    18    19    1
    33    19    11    1
    34    19    15    1
    35     7     1   ar
    36    33    27   ar
    37    22    23    1
