@<TRIPOS>MOLECULE
*****
 34 37 0 0 0
SMALL
GASTEIGER

@<TRIPOS>ATOM
      1 N          60.7851   88.9851   11.0973 N.am    1  UNL1       -0.2533
      2 C          62.0637   89.6381   11.5315 C.2     1  UNL1        0.3092
      3 O          63.0363   90.1389   10.5052 O.2     1  UNL1       -0.2521
      4 N          62.3698   89.7904   12.9921 N.am    1  UNL1       -0.2680
      5 H          60.1468   88.6564   11.7710 H       1  UNL1        0.1578
      6 H          61.7315   89.4617   13.6657 H       1  UNL1        0.1564
      7 C          63.6485   90.4434   13.4262 C.ar    1  UNL1        0.0516
      8 C          64.1873   91.6178   12.6643 C.ar    1  UNL1        0.0147
      9 C          65.4660   92.2708   13.0984 C.ar    1  UNL1        0.0013
     10 C          66.2059   91.7496   14.2945 C.ar    1  UNL1        0.0016
     11 C          65.6672   90.5752   15.0565 C.ar    1  UNL1        0.0013
     12 C          64.3885   89.9222   14.6223 C.ar    1  UNL1        0.0147
     13 C          67.4846   92.4026   14.7287 C.ar    1  UNL1        0.0192
     14 C          67.4806   93.3725   15.8729 C.ar    1  UNL1        0.0031
     15 C          68.7593   94.0255   16.3071 C.ar    1  UNL1        0.0207
     16 C          70.0420   93.7087   15.5970 C.ar    1  UNL1        0.0989
     17 N          70.0460   92.7388   14.4527 N.ar    1  UNL1       -0.2423
     18 C          68.7673   92.0858   14.0185 C.ar    1  UNL1        0.0988
     19 N          60.8793   87.6776    8.7678 N.ar    1  UNL1       -0.2162
     20 N          60.3664   87.9399    7.3829 N.ar    1  UNL1       -0.1683
     21 C          59.6491   89.2572    7.3959 C.ar    1  UNL1        0.0810
     22 C          59.7186   89.8091    8.7890 C.ar    1  UNL1        0.0509
     23 C          60.4789   88.8328    9.6368 C.ar    1  UNL1        0.1380
     24 C          63.9868   82.8546   10.5234 C.3     1  UNL1        0.0310
     25 C          63.2099   84.0604   10.0845 C.ar    1  UNL1       -0.0218
     26 C          62.2987   84.7579   11.0504 C.ar    1  UNL1       -0.0027
     27 C          61.5218   85.9636   10.6115 C.ar    1  UNL1        0.0189
     28 C          61.6562   86.4719    9.2067 C.ar    1  UNL1        0.0842
     29 C          62.5674   85.7744    8.2408 C.ar    1  UNL1        0.0189
     30 C          63.3443   84.5686    8.6796 C.ar    1  UNL1       -0.0027
     31 C          58.9797   89.9083    6.2220 C.3     1  UNL1        0.0372
     32 C          57.6680   89.3122    6.6393 C.3     1  UNL1        0.0060
     33 C          60.2914   90.5044    5.8047 C.3     1  UNL1        0.0060
     34 C          58.3104   90.5594    5.0481 C.3     1  UNL1        0.0060
@<TRIPOS>BOND
     1    24    25    1
     2    25    26   ar
     3    26    27   ar
     4    27    28   ar
     5    28    19    1
     6    19    20   ar
     7    20    21   ar
     8    21    31    1
     9    31    32    1
    10    31    33    1
    11    31    34    1
    12    21    22   ar
    13    22    23   ar
    14    23     1    1
    15     1     2   am
    16     2     3    2
    17     2     4   am
    18     4     7    1
    19     7     8   ar
    20     8     9   ar
    21     9    10   ar
    22    10    13    1
    23    13    14   ar
    24    14    15   ar
    25    15    16   ar
    26    16    17   ar
    27    17    18   ar
    28    10    11   ar
    29    11    12   ar
    30    28    29   ar
    31    29    30   ar
    32    30    25   ar
    33    23    19   ar
    34    12     7   ar
    35    18    13   ar
    36     1     5    1
    37     4     6    1
@<TRIPOS>MOLECULE
*****
 34 37 0 0 0
SMALL
GASTEIGER

@<TRIPOS>ATOM
      1 N          62.8947   86.6567   14.2841 N.am    1  UNL1       -0.2533
      2 C          63.5113   87.7889   13.5174 C.2     1  UNL1        0.3092
      3 O          63.9681   87.5769   12.1044 O.2     1  UNL1       -0.2521
      4 N          63.6712   89.1331   14.1636 N.am    1  UNL1       -0.2680
      5 H          62.5949   86.7959   15.2115 H       1  UNL1        0.1578
      6 H          63.3714   89.2723   15.0909 H       1  UNL1        0.1564
      7 C          64.2879   90.2653   13.3968 C.ar    1  UNL1        0.0516
      8 C          65.4879   90.9777   13.9466 C.ar    1  UNL1        0.0147
      9 C          66.1046   92.1099   13.1798 C.ar    1  UNL1        0.0013
     10 C          65.5212   92.5296   11.8632 C.ar    1  UNL1        0.0016
     11 C          64.3212   91.8172   11.3134 C.ar    1  UNL1        0.0013
     12 C          63.7045   90.6850   12.0802 C.ar    1  UNL1        0.0147
     13 C          66.1378   93.6618   11.0964 C.ar    1  UNL1        0.0192
     14 C          66.8853   93.3874    9.8252 C.ar    1  UNL1        0.0031
     15 C          67.5019   94.5195    9.0584 C.ar    1  UNL1        0.0207
     16 C          67.3711   95.9261    9.5629 C.ar    1  UNL1        0.0989
     17 N          66.6237   96.2005   10.8341 N.ar    1  UNL1       -0.2423
     18 C          66.0070   95.0683   11.6009 C.ar    1  UNL1        0.0988
     19 N          62.1721   85.0521   12.2721 N.ar    1  UNL1       -0.2162
     20 N          62.1991   83.5714   12.0343 N.ar    1  UNL1       -0.1683
     21 C          62.7785   82.9166   13.2532 C.ar    1  UNL1        0.0810
     22 C          63.1096   83.9927   14.2443 C.ar    1  UNL1        0.0509
     23 C          62.7348   85.3125   13.6380 C.ar    1  UNL1        0.1380
     24 C          60.1658   89.2046    8.4339 C.3     1  UNL1        0.0310
     25 C          60.6674   88.1665    9.3935 C.ar    1  UNL1       -0.0218
     26 C          61.6391   87.1227    8.9286 C.ar    1  UNL1       -0.0027
     27 C          62.1407   86.0845    9.8882 C.ar    1  UNL1        0.0189
     28 C          61.6705   86.0903   11.3126 C.ar    1  UNL1        0.0842
     29 C          60.6988   87.1341   11.7774 C.ar    1  UNL1        0.0189
     30 C          60.1972   88.1722   10.8178 C.ar    1  UNL1       -0.0027
     31 C          62.9897   81.4442   13.4468 C.3     1  UNL1        0.0372
     32 C          61.6742   81.3495   14.1614 C.3     1  UNL1        0.0060
     33 C          64.3051   81.5389   12.7322 C.3     1  UNL1        0.0060
     34 C          63.2008   79.9718   13.6405 C.3     1  UNL1        0.0060
@<TRIPOS>BOND
     1    24    25    1
     2    25    26   ar
     3    26    27   ar
     4    27    28   ar
     5    28    19    1
     6    19    20   ar
     7    20    21   ar
     8    21    31    1
     9    31    32    1
    10    31    33    1
    11    31    34    1
    12    21    22   ar
    13    22    23   ar
    14    23     1    1
    15     1     2   am
    16     2     3    2
    17     2     4   am
    18     4     7    1
    19     7     8   ar
    20     8     9   ar
    21     9    10   ar
    22    10    13    1
    23    13    14   ar
    24    14    15   ar
    25    15    16   ar
    26    16    17   ar
    27    17    18   ar
    28    10    11   ar
    29    11    12   ar
    30    28    29   ar
    31    29    30   ar
    32    30    25   ar
    33    23    19   ar
    34    12     7   ar
    35    18    13   ar
    36     1     5    1
    37     4     6    1
@<TRIPOS>MOLECULE
*****
 34 37 0 0 0
SMALL
GASTEIGER

@<TRIPOS>ATOM
      1 N          63.5145   88.6642   15.2571 N.am    1  UNL1       -0.2533
      2 C          63.4949   87.3867   14.4715 C.2     1  UNL1        0.3092
      3 O          64.0710   87.3486   13.0870 O.2     1  UNL1       -0.2521
      4 N          62.8992   86.1470   15.0701 N.am    1  UNL1       -0.2680
      5 H          63.1364   88.6891   16.1658 H       1  UNL1        0.1578
      6 H          62.5211   86.1719   15.9788 H       1  UNL1        0.1564
      7 C          62.8796   84.8694   14.2844 C.ar    1  UNL1        0.0516
      8 C          62.7354   84.9090   12.7919 C.ar    1  UNL1        0.0147
      9 C          62.7158   83.6314   12.0061 C.ar    1  UNL1        0.0013
     10 C          62.8404   82.3142   12.7128 C.ar    1  UNL1        0.0016
     11 C          62.9847   82.2747   14.2054 C.ar    1  UNL1        0.0013
     12 C          63.0042   83.5523   14.9911 C.ar    1  UNL1        0.0147
     13 C          62.8208   81.0367   11.9271 C.ar    1  UNL1        0.0192
     14 C          63.0593   81.0631   10.4464 C.ar    1  UNL1        0.0031
     15 C          63.0397   79.7855    9.6607 C.ar    1  UNL1        0.0207
     16 C          62.7817   78.4815   10.3556 C.ar    1  UNL1        0.0989
     17 N          62.5432   78.4551   11.8363 N.ar    1  UNL1       -0.2423
     18 C          62.5628   79.7327   12.6220 C.ar    1  UNL1        0.0988
     19 N          63.7418   90.5093   13.3364 N.ar    1  UNL1       -0.2162
     20 N          64.5828   91.7353   13.1376 N.ar    1  UNL1       -0.1683
     21 C          65.4710   91.8876   14.3368 C.ar    1  UNL1        0.0810
     22 C          65.1789   90.7557   15.2767 C.ar    1  UNL1        0.0509
     23 C          64.1102   89.9039   14.6584 C.ar    1  UNL1        0.1380
     24 C          59.6266   88.3976    9.5146 C.3     1  UNL1        0.0310
     25 C          60.6554   88.9256   10.4700 C.ar    1  UNL1       -0.0218
     26 C          60.2744   89.2331   11.8878 C.ar    1  UNL1       -0.0027
     27 C          61.3032   89.7610   12.8433 C.ar    1  UNL1        0.0189
     28 C          62.7130   89.9814   12.3809 C.ar    1  UNL1        0.0842
     29 C          63.0940   89.6739   10.9632 C.ar    1  UNL1        0.0189
     30 C          62.0652   89.1459   10.0077 C.ar    1  UNL1       -0.0027
     31 C          66.4750   92.9801   14.5573 C.3     1  UNL1        0.0372
     32 C          66.3990   93.3432   13.1039 C.3     1  UNL1        0.0060
     33 C          66.5509   92.6169   16.0107 C.3     1  UNL1        0.0060
     34 C          67.4790   94.0725   14.7778 C.3     1  UNL1        0.0060
@<TRIPOS>BOND
     1    24    25    1
     2    25    26   ar
     3    26    27   ar
     4    27    28   ar
     5    28    19    1
     6    19    20   ar
     7    20    21   ar
     8    21    31    1
     9    31    32    1
    10    31    33    1
    11    31    34    1
    12    21    22   ar
    13    22    23   ar
    14    23     1    1
    15     1     2   am
    16     2     3    2
    17     2     4   am
    18     4     7    1
    19     7     8   ar
    20     8     9   ar
    21     9    10   ar
    22    10    13    1
    23    13    14   ar
    24    14    15   ar
    25    15    16   ar
    26    16    17   ar
    27    17    18   ar
    28    10    11   ar
    29    11    12   ar
    30    28    29   ar
    31    29    30   ar
    32    30    25   ar
    33    23    19   ar
    34    12     7   ar
    35    18    13   ar
    36     1     5    1
    37     4     6    1
@<TRIPOS>MOLECULE
*****
 34 37 0 0 0
SMALL
GASTEIGER

@<TRIPOS>ATOM
      1 N          64.5312   90.7529   13.9016 N.am    1  UNL1       -0.2533
      2 C          64.2381   89.2915   13.7345 C.2     1  UNL1        0.3092
      3 O          64.1667   88.6931   12.3608 O.2     1  UNL1       -0.2521
      4 N          64.0164   88.4281   14.9409 N.am    1  UNL1       -0.2680
      5 H          64.5781   91.1456   14.8032 H       1  UNL1        0.1578
      6 H          64.0632   88.8208   15.8425 H       1  UNL1        0.1564
      7 C          63.7232   86.9666   14.7737 C.ar    1  UNL1        0.0516
      8 C          63.5547   86.3878   13.4001 C.ar    1  UNL1        0.0147
      9 C          63.2616   84.9263   13.2329 C.ar    1  UNL1        0.0013
     10 C          63.1370   84.0435   14.4391 C.ar    1  UNL1        0.0016
     11 C          63.3054   84.6223   15.8127 C.ar    1  UNL1        0.0013
     12 C          63.5986   86.0838   15.9799 C.ar    1  UNL1        0.0147
     13 C          62.8438   82.5819   14.2719 C.ar    1  UNL1        0.0192
     14 C          61.4240   82.0982   14.2610 C.ar    1  UNL1        0.0031
     15 C          61.1309   80.6367   14.0937 C.ar    1  UNL1        0.0207
     16 C          62.2576   79.6589   13.9374 C.ar    1  UNL1        0.0989
     17 N          63.6774   80.1426   13.9484 N.ar    1  UNL1       -0.2423
     18 C          63.9705   81.6042   14.1156 C.ar    1  UNL1        0.0988
     19 N          63.9462   91.5886   11.4309 N.ar    1  UNL1       -0.2162
     20 N          64.5151   92.6141   10.4956 N.ar    1  UNL1       -0.1683
     21 C          65.6733   93.2755   11.1819 C.ar    1  UNL1        0.0810
     22 C          65.8203   92.6589   12.5413 C.ar    1  UNL1        0.0509
     23 C          64.7529   91.6163   12.6952 C.ar    1  UNL1        0.1380
     24 C          59.2659   88.0051   10.3115 C.3     1  UNL1        0.0310
     25 C          60.4360   88.9010   10.5913 C.ar    1  UNL1       -0.0218
     26 C          61.6658   88.8174    9.7367 C.ar    1  UNL1       -0.0027
     27 C          62.8359   89.7133   10.0165 C.ar    1  UNL1        0.0189
     28 C          62.7762   90.6927   11.1511 C.ar    1  UNL1        0.0842
     29 C          61.5463   90.7762   12.0057 C.ar    1  UNL1        0.0189
     30 C          60.3762   89.8804   11.7259 C.ar    1  UNL1       -0.0027
     31 C          66.5335   94.3628   10.6092 C.3     1  UNL1        0.0372
     32 C          67.1657   93.3718    9.6773 C.3     1  UNL1        0.0060
     33 C          65.9014   95.3537   11.5410 C.3     1  UNL1        0.0060
     34 C          67.3937   95.4500   10.0365 C.3     1  UNL1        0.0060
@<TRIPOS>BOND
     1    24    25    1
     2    25    26   ar
     3    26    27   ar
     4    27    28   ar
     5    28    19    1
     6    19    20   ar
     7    20    21   ar
     8    21    31    1
     9    31    32    1
    10    31    33    1
    11    31    34    1
    12    21    22   ar
    13    22    23   ar
    14    23     1    1
    15     1     2   am
    16     2     3    2
    17     2     4   am
    18     4     7    1
    19     7     8   ar
    20     8     9   ar
    21     9    10   ar
    22    10    13    1
    23    13    14   ar
    24    14    15   ar
    25    15    16   ar
    26    16    17   ar
    27    17    18   ar
    28    10    11   ar
    29    11    12   ar
    30    28    29   ar
    31    29    30   ar
    32    30    25   ar
    33    23    19   ar
    34    12     7   ar
    35    18    13   ar
    36     1     5    1
    37     4     6    1
@<TRIPOS>MOLECULE
*****
 34 37 0 0 0
SMALL
GASTEIGER

@<TRIPOS>ATOM
      1 N          64.0799   92.7856   12.0495 N.am    1  UNL1       -0.2533
      2 C          64.0847   91.2910   11.9228 C.2     1  UNL1        0.3092
      3 O          65.1579   90.6092   11.1269 O.2     1  UNL1       -0.2521
      4 N          63.0164   90.4781   12.5920 N.am    1  UNL1       -0.2680
      5 H          63.3755   93.2330   12.5718 H       1  UNL1        0.1578
      6 H          62.3120   90.9255   13.1143 H       1  UNL1        0.1564
      7 C          63.0213   88.9835   12.4653 C.ar    1  UNL1        0.0516
      8 C          63.7632   88.1483   13.4663 C.ar    1  UNL1        0.0147
      9 C          63.7681   86.6537   13.3396 C.ar    1  UNL1        0.0013
     10 C          63.0311   85.9942   12.2119 C.ar    1  UNL1        0.0016
     11 C          62.2892   86.8293   11.2108 C.ar    1  UNL1        0.0013
     12 C          62.2843   88.3239   11.3375 C.ar    1  UNL1        0.0147
     13 C          63.0360   84.4995   12.0852 C.ar    1  UNL1        0.0192
     14 C          63.4735   83.8570   10.8023 C.ar    1  UNL1        0.0031
     15 C          63.4784   82.3624   10.6756 C.ar    1  UNL1        0.0207
     16 C          63.0458   81.5103   11.8317 C.ar    1  UNL1        0.0989
     17 N          62.6083   82.1528   13.1146 N.ar    1  UNL1       -0.2423
     18 C          62.6034   83.6474   13.2413 C.ar    1  UNL1        0.0988
     19 N          66.5377   93.8255   11.8979 N.ar    1  UNL1       -0.2162
     20 N          67.2628   94.6944   10.9135 N.ar    1  UNL1       -0.1683
     21 C          66.3215   95.0046    9.7875 C.ar    1  UNL1        0.0810
     22 C          65.0146   94.3273   10.0760 C.ar    1  UNL1        0.0509
     23 C          65.1482   93.5985   11.3803 C.ar    1  UNL1        0.1380
     24 C          68.7981   91.6408   17.0084 C.3     1  UNL1        0.0310
     25 C          68.2330   92.1870   15.7308 C.ar    1  UNL1       -0.0218
     26 C          68.6217   91.5761   14.4172 C.ar    1  UNL1       -0.0027
     27 C          68.0566   92.1223   13.1395 C.ar    1  UNL1        0.0189
     28 C          67.1028   93.2793   13.1755 C.ar    1  UNL1        0.0842
     29 C          66.7140   93.8902   14.4891 C.ar    1  UNL1        0.0189
     30 C          67.2791   93.3440   15.7668 C.ar    1  UNL1       -0.0027
     31 C          66.6325   95.8446    8.5843 C.3     1  UNL1        0.0372
     32 C          65.6176   96.8560    9.0280 C.3     1  UNL1        0.0060
     33 C          67.6475   94.8332    8.1406 C.3     1  UNL1        0.0060
     34 C          66.9436   96.6846    7.3811 C.3     1  UNL1        0.0060
@<TRIPOS>BOND
     1    24    25    1
     2    25    26   ar
     3    26    27   ar
     4    27    28   ar
     5    28    19    1
     6    19    20   ar
     7    20    21   ar
     8    21    31    1
     9    31    32    1
    10    31    33    1
    11    31    34    1
    12    21    22   ar
    13    22    23   ar
    14    23     1    1
    15     1     2   am
    16     2     3    2
    17     2     4   am
    18     4     7    1
    19     7     8   ar
    20     8     9   ar
    21     9    10   ar
    22    10    13    1
    23    13    14   ar
    24    14    15   ar
    25    15    16   ar
    26    16    17   ar
    27    17    18   ar
    28    10    11   ar
    29    11    12   ar
    30    28    29   ar
    31    29    30   ar
    32    30    25   ar
    33    23    19   ar
    34    12     7   ar
    35    18    13   ar
    36     1     5    1
    37     4     6    1
