@<TRIPOS>MOLECULE
*****
 37 41 0 0 0
SMALL
GASTEIGER

@<TRIPOS>ATOM
      1 C          61.5543   88.7612   11.2051 C.ar    1  UNL1        0.0040
      2 C          61.1909   87.7454   10.1630 C.ar    1  UNL1        0.0719
      3 C          61.8219   86.4402   10.5482 C.ar    1  UNL1        0.1049
      4 N          62.5752   86.6494   11.8284 N.ar    1  UNL1       -0.2242
      5 N          63.3903   85.7190   12.6768 N.ar    1  UNL1       -0.1422
      6 C          64.0400   86.2231   13.9312 C.ar    1  UNL1        0.2211
      7 N          63.8746   87.6576   14.3372 N.ar    1  UNL1       -0.2060
      8 C          63.0595   88.5880   13.4888 C.ar    1  UNL1        0.1515
      9 C          62.4098   88.0839   12.2344 C.ar    1  UNL1        0.1107
     10 C          60.3452   87.9915    8.9489 C.ar    1  UNL1        0.2525
     11 N          59.3638   87.0293    8.3481 N.ar    1  UNL1       -0.1057
     12 N          58.7444   87.6862    7.1503 N.ar    1  UNL1       -0.0921
     13 C          59.3429   89.0544    7.0107 C.ar    1  UNL1        0.3120
     14 O          60.3323   89.2432    8.1223 O.2     1  UNL1       -0.4046
     15 N          59.0105   90.0579    5.9464 N.pl3   1  UNL1       -0.2589
     16 C          57.5810   90.4322    5.6887 C.3     1  UNL1        0.1167
     17 C          60.1077   90.6869    5.1399 C.3     1  UNL1        0.1167
     18 C          59.7552   90.5780   11.6666 C.3     1  UNL1        0.0047
     19 C          61.1356   90.2016   11.2161 C.3     1  UNL1        0.0241
     20 C          62.0972   91.2656   10.7768 C.3     1  UNL1        0.0047
     21 N          62.8941   90.0225   13.8949 N.pl3   1  UNL1       -0.2949
     22 H          61.9929   90.3947   14.0313 H       1  UNL1        0.1537
     23 C          64.1017   90.8899   14.0931 C.ar    1  UNL1        0.0775
     24 C          64.8745   91.3824   12.9055 C.ar    1  UNL1        0.0237
     25 C          66.0820   92.2498   13.1037 C.ar    1  UNL1        0.0821
     26 C          66.5169   92.6247   14.4895 C.ar    1  UNL1        0.1468
     27 F          67.7246   93.4921   14.6876 F       1  UNL1       -0.2039
     28 C          65.7442   92.1322   15.6770 C.ar    1  UNL1        0.0607
     29 C          64.5365   91.2648   15.4788 C.ar    1  UNL1        0.1557
     30 F          63.7638   90.7723   16.6664 F       1  UNL1       -0.2028
     31 C          66.8548   92.7423   11.9161 C.2     1  UNL1        0.2480
     32 O          68.2043   92.1648   11.6073 O.2     1  UNL1       -0.2701
     33 N          66.2781   93.8125   11.0373 N.am    1  UNL1       -0.3024
     34 H          65.3924   94.1915   11.2400 H       1  UNL1        0.1497
     35 C          67.0508   94.3050    9.8498 C.3     1  UNL1        0.0720
     36 C          67.5238   95.4365    8.9861 C.3     1  UNL1        0.0213
     37 C          67.9162   94.0267    8.6567 C.3     1  UNL1        0.0213
@<TRIPOS>BOND
     1    18    19    1
     2    19    20    1
     3    19     1    1
     4     1     2   ar
     5     2    10    1
     6    10    11   ar
     7    11    12   ar
     8    12    13   ar
     9    13    15    1
    10    15    16    1
    11    15    17    1
    12    13    14   ar
    13     2     3   ar
    14     3     4   ar
    15     4     5   ar
    16     5     6   ar
    17     6     7   ar
    18     7     8   ar
    19     8    21    1
    20    21    23    1
    21    23    24   ar
    22    24    25   ar
    23    25    31    1
    24    31    32    2
    25    31    33   am
    26    33    35    1
    27    35    36    1
    28    36    37    1
    29    25    26   ar
    30    26    27    1
    31    26    28   ar
    32    28    29   ar
    33    29    30    1
    34     8     9   ar
    35     9     1   ar
    36    14    10   ar
    37     9     4   ar
    38    29    23   ar
    39    37    35    1
    40    21    22    1
    41    33    34    1
@<TRIPOS>MOLECULE
*****
 37 41 0 0 0
SMALL
GASTEIGER

@<TRIPOS>ATOM
      1 C          62.9453   86.6144   12.2586 C.ar    1  UNL1        0.0040
      2 C          62.7841   85.6313   11.1372 C.ar    1  UNL1        0.0719
      3 C          62.1924   86.3576    9.9657 C.ar    1  UNL1        0.1049
      4 N          61.9879   87.7895   10.3631 N.ar    1  UNL1       -0.2242
      5 N          61.4381   88.9692    9.6176 N.ar    1  UNL1       -0.1422
      6 C          61.3537   90.3078   10.2893 C.ar    1  UNL1        0.2211
      7 N          61.8190   90.4665   11.7064 N.ar    1  UNL1       -0.2060
      8 C          62.3688   89.2867   12.4519 C.ar    1  UNL1        0.1515
      9 C          62.4532   87.9482   11.7802 C.ar    1  UNL1        0.1107
     10 C          63.1503   84.1773   11.1798 C.ar    1  UNL1        0.2525
     11 N          64.3395   83.5478   10.5169 N.ar    1  UNL1       -0.1057
     12 N          64.3158   82.0790   10.8202 N.ar    1  UNL1       -0.0921
     13 C          63.1119   81.8007   11.6706 C.ar    1  UNL1        0.3120
     14 O          62.3916   83.0975   11.8928 O.2     1  UNL1       -0.4046
     15 N          62.7004   80.4608   12.2049 N.pl3   1  UNL1       -0.2589
     16 C          62.6967   79.2625   11.3026 C.3     1  UNL1        0.1167
     17 C          62.2927   80.3193   13.6414 C.3     1  UNL1        0.1167
     18 C          64.5957   87.1707   14.1866 C.3     1  UNL1        0.0047
     19 C          63.5010   86.3161   13.6196 C.3     1  UNL1        0.0241
     20 C          62.9622   85.1632   14.4136 C.3     1  UNL1        0.0047
     21 N          62.8341   89.4454   13.8690 N.pl3   1  UNL1       -0.2949
     22 H          62.4436   88.8884   14.5806 H       1  UNL1        0.1537
     23 C          63.8944   90.4528   14.2019 C.ar    1  UNL1        0.0775
     24 C          64.7931   90.9803   13.1228 C.ar    1  UNL1        0.0237
     25 C          65.8534   91.9877   13.4557 C.ar    1  UNL1        0.0821
     26 C          66.0151   92.4677   14.8675 C.ar    1  UNL1        0.1468
     27 F          67.0755   93.4751   15.2004 F       1  UNL1       -0.2039
     28 C          65.1166   91.9403   15.9466 C.ar    1  UNL1        0.0607
     29 C          64.0562   90.9328   15.6138 C.ar    1  UNL1        0.1557
     30 F          63.1576   90.4054   16.6928 F       1  UNL1       -0.2028
     31 C          66.7520   92.5151   12.3766 C.2     1  UNL1        0.2480
     32 O          68.2212   92.2145   12.4106 O.2     1  UNL1       -0.2701
     33 N          66.1815   93.3432   11.2636 N.am    1  UNL1       -0.3024
     34 H          65.2172   93.5405   11.2413 H       1  UNL1        0.1497
     35 C          67.0800   93.8706   10.1846 C.3     1  UNL1        0.0720
     36 C          67.5087   94.9902    9.2830 C.3     1  UNL1        0.0213
     37 C          68.2077   93.6647    9.2172 C.3     1  UNL1        0.0213
@<TRIPOS>BOND
     1    18    19    1
     2    19    20    1
     3    19     1    1
     4     1     2   ar
     5     2    10    1
     6    10    11   ar
     7    11    12   ar
     8    12    13   ar
     9    13    15    1
    10    15    16    1
    11    15    17    1
    12    13    14   ar
    13     2     3   ar
    14     3     4   ar
    15     4     5   ar
    16     5     6   ar
    17     6     7   ar
    18     7     8   ar
    19     8    21    1
    20    21    23    1
    21    23    24   ar
    22    24    25   ar
    23    25    31    1
    24    31    32    2
    25    31    33   am
    26    33    35    1
    27    35    36    1
    28    36    37    1
    29    25    26   ar
    30    26    27    1
    31    26    28   ar
    32    28    29   ar
    33    29    30    1
    34     8     9   ar
    35     9     1   ar
    36    14    10   ar
    37     9     4   ar
    38    29    23   ar
    39    37    35    1
    40    21    22    1
    41    33    34    1
@<TRIPOS>MOLECULE
*****
 37 41 0 0 0
SMALL
GASTEIGER

@<TRIPOS>ATOM
      1 C          62.4538   87.5573   11.5928 C.ar    1  UNL1        0.0040
      2 C          62.3953   86.2254   10.9054 C.ar    1  UNL1        0.0719
      3 C          63.0278   85.2092   11.8095 C.ar    1  UNL1        0.1049
      4 N          63.4771   85.9131   13.0555 N.ar    1  UNL1       -0.2242
      5 N          64.1634   85.4200   14.2948 N.ar    1  UNL1       -0.1422
      6 C          64.4949   86.3782   15.4001 C.ar    1  UNL1        0.2211
      7 N          64.1402   87.8295   15.2662 N.ar    1  UNL1       -0.2060
      8 C          63.4539   88.3225   14.0270 C.ar    1  UNL1        0.1515
      9 C          63.1223   87.3643   12.9216 C.ar    1  UNL1        0.1107
     10 C          61.8076   85.9568    9.5517 C.ar    1  UNL1        0.2525
     11 N          60.4505   86.3863    9.0787 N.ar    1  UNL1       -0.1057
     12 N          60.2780   85.9065    7.6680 N.ar    1  UNL1       -0.0921
     13 C          61.5286   85.1806    7.2691 C.ar    1  UNL1        0.3120
     14 O          62.4739   85.2117    8.4333 O.2     1  UNL1       -0.4046
     15 N          61.7882   84.5366    5.9395 N.pl3   1  UNL1       -0.2589
     16 C          63.1096   84.7316    5.2569 C.3     1  UNL1        0.1167
     17 C          60.7264   83.6975    5.2925 C.3     1  UNL1        0.1167
     18 C          60.5231   89.2760   11.3298 C.3     1  UNL1        0.0047
     19 C          61.9348   88.8546   11.0471 C.3     1  UNL1        0.0241
     20 C          62.8272   89.7306   10.2189 C.3     1  UNL1        0.0047
     21 N          63.0991   89.7738   13.8931 N.pl3   1  UNL1       -0.2949
     22 H          62.1790   90.0363   13.6609 H       1  UNL1        0.1537
     23 C          64.1461   90.8252   14.1128 C.ar    1  UNL1        0.0775
     24 C          64.8709   91.4183   12.9411 C.ar    1  UNL1        0.0237
     25 C          65.9179   92.4697   13.1608 C.ar    1  UNL1        0.0821
     26 C          66.2401   92.9281   14.5522 C.ar    1  UNL1        0.1468
     27 F          67.2872   93.9795   14.7719 F       1  UNL1       -0.2039
     28 C          65.5153   92.3350   15.7239 C.ar    1  UNL1        0.0607
     29 C          64.4683   91.2836   15.5042 C.ar    1  UNL1        0.1557
     30 F          63.7435   90.6905   16.6759 F       1  UNL1       -0.2028
     31 C          66.6428   93.0628   11.9891 C.2     1  UNL1        0.2480
     32 O          67.8907   92.4114   11.4712 O.2     1  UNL1       -0.2701
     33 N          66.1196   94.3073   11.3352 N.am    1  UNL1       -0.3024
     34 H          65.3005   94.7349   11.6751 H       1  UNL1        0.1497
     35 C          66.8444   94.9004   10.1636 C.3     1  UNL1        0.0720
     36 C          67.3574   96.1016    9.4259 C.3     1  UNL1        0.0213
     37 C          67.5867   94.7267    8.8718 C.3     1  UNL1        0.0213
@<TRIPOS>BOND
     1    18    19    1
     2    19    20    1
     3    19     1    1
     4     1     2   ar
     5     2    10    1
     6    10    11   ar
     7    11    12   ar
     8    12    13   ar
     9    13    15    1
    10    15    16    1
    11    15    17    1
    12    13    14   ar
    13     2     3   ar
    14     3     4   ar
    15     4     5   ar
    16     5     6   ar
    17     6     7   ar
    18     7     8   ar
    19     8    21    1
    20    21    23    1
    21    23    24   ar
    22    24    25   ar
    23    25    31    1
    24    31    32    2
    25    31    33   am
    26    33    35    1
    27    35    36    1
    28    36    37    1
    29    25    26   ar
    30    26    27    1
    31    26    28   ar
    32    28    29   ar
    33    29    30    1
    34     8     9   ar
    35     9     1   ar
    36    14    10   ar
    37     9     4   ar
    38    29    23   ar
    39    37    35    1
    40    21    22    1
    41    33    34    1
@<TRIPOS>MOLECULE
*****
 37 41 0 0 0
SMALL
GASTEIGER

@<TRIPOS>ATOM
      1 C          62.9853   84.4159   13.3681 C.ar    1  UNL1        0.0040
      2 C          62.8890   83.1361   14.1446 C.ar    1  UNL1        0.0719
      3 C          63.0104   83.4682   15.6023 C.ar    1  UNL1        0.1049
      4 N          63.1817   84.9532   15.7267 N.ar    1  UNL1       -0.2242
      5 N          63.3498   85.8478   16.9190 N.ar    1  UNL1       -0.1422
      6 C          63.5025   87.3280   16.7304 C.ar    1  UNL1        0.2211
      7 N          63.4869   87.9137   15.3495 N.ar    1  UNL1       -0.2060
      8 C          63.3188   87.0191   14.1573 C.ar    1  UNL1        0.1515
      9 C          63.1662   85.5389   14.3459 C.ar    1  UNL1        0.1107
     10 C          62.7038   81.7650   13.5651 C.ar    1  UNL1        0.2525
     11 N          62.2363   80.5492   14.3089 N.ar    1  UNL1       -0.1057
     12 N          62.1971   79.4018   13.3436 N.ar    1  UNL1       -0.0921
     13 C          62.6404   79.9084   12.0032 C.ar    1  UNL1        0.3120
     14 O          62.9536   81.3689   12.1401 O.2     1  UNL1       -0.4046
     15 N          62.7512   79.0970   10.7465 N.pl3   1  UNL1       -0.2589
     16 C          62.7292   77.5988   10.8167 C.3     1  UNL1        0.1167
     17 C          62.8839   79.7838    9.4196 C.3     1  UNL1        0.1167
     18 C          63.9862   83.9487   11.0164 C.3     1  UNL1        0.0047
     19 C          62.9133   84.5492   11.8758 C.3     1  UNL1        0.0241
     20 C          61.7685   85.2830   11.2426 C.3     1  UNL1        0.0047
     21 N          63.3033   87.6048   12.7764 N.pl3   1  UNL1       -0.2949
     22 H          63.0321   87.0502   12.0095 H       1  UNL1        0.1537
     23 C          63.7010   89.0354   12.5640 C.ar    1  UNL1        0.0775
     24 C          64.5605   89.7331   13.5762 C.ar    1  UNL1        0.0237
     25 C          64.9582   91.1637   13.3638 C.ar    1  UNL1        0.0821
     26 C          64.4965   91.8967   12.1393 C.ar    1  UNL1        0.1468
     27 F          64.8942   93.3274   11.9269 F       1  UNL1       -0.2039
     28 C          63.6370   91.1990   11.1271 C.ar    1  UNL1        0.0607
     29 C          63.2393   89.7683   11.3394 C.ar    1  UNL1        0.1557
     30 F          62.3798   89.0707   10.3273 F       1  UNL1       -0.2028
     31 C          65.8177   91.8615   14.3760 C.2     1  UNL1        0.2480
     32 O          65.1902   92.5041   15.5774 O.2     1  UNL1       -0.2701
     33 N          67.3047   91.9166   14.1868 N.am    1  UNL1       -0.3024
     34 H          67.7165   91.4949   13.3983 H       1  UNL1        0.1497
     35 C          68.1642   92.6143   15.1989 C.3     1  UNL1        0.0720
     36 C          68.6275   93.8793   15.8587 C.3     1  UNL1        0.0213
     37 C          69.1895   92.5579   16.2923 C.3     1  UNL1        0.0213
@<TRIPOS>BOND
     1    18    19    1
     2    19    20    1
     3    19     1    1
     4     1     2   ar
     5     2    10    1
     6    10    11   ar
     7    11    12   ar
     8    12    13   ar
     9    13    15    1
    10    15    16    1
    11    15    17    1
    12    13    14   ar
    13     2     3   ar
    14     3     4   ar
    15     4     5   ar
    16     5     6   ar
    17     6     7   ar
    18     7     8   ar
    19     8    21    1
    20    21    23    1
    21    23    24   ar
    22    24    25   ar
    23    25    31    1
    24    31    32    2
    25    31    33   am
    26    33    35    1
    27    35    36    1
    28    36    37    1
    29    25    26   ar
    30    26    27    1
    31    26    28   ar
    32    28    29   ar
    33    29    30    1
    34     8     9   ar
    35     9     1   ar
    36    14    10   ar
    37     9     4   ar
    38    29    23   ar
    39    37    35    1
    40    21    22    1
    41    33    34    1
@<TRIPOS>MOLECULE
*****
 37 41 0 0 0
SMALL
GASTEIGER

@<TRIPOS>ATOM
      1 C          64.0562   90.9447   12.3365 C.ar    1  UNL1        0.0040
      2 C          65.0843   91.8750   12.9090 C.ar    1  UNL1        0.0719
      3 C          65.6385   91.2447   14.1522 C.ar    1  UNL1        0.1049
      4 N          64.9530   89.9250   14.3480 N.ar    1  UNL1       -0.2242
      5 N          65.0929   88.8681   15.4032 N.ar    1  UNL1       -0.1422
      6 C          64.2550   87.6259   15.3362 C.ar    1  UNL1        0.2211
      7 N          63.2770   87.4405   14.2140 N.ar    1  UNL1       -0.2060
      8 C          63.1371   88.4973   13.1588 C.ar    1  UNL1        0.1515
      9 C          63.9751   89.7396   13.2258 C.ar    1  UNL1        0.1107
     10 C          65.4873   93.2024   12.3384 C.ar    1  UNL1        0.2525
     11 N          66.0214   94.3699   13.1141 N.ar    1  UNL1       -0.1057
     12 N          66.2912   95.4845   12.1471 N.ar    1  UNL1       -0.0921
     13 C          65.9239   95.0058   10.7738 C.ar    1  UNL1        0.3120
     14 O          65.4270   93.5954   10.8921 O.2     1  UNL1       -0.4046
     15 N          66.0340   95.7983    9.5051 N.pl3   1  UNL1       -0.2589
     16 C          67.1609   95.5339    8.5510 C.3     1  UNL1        0.1167
     17 C          65.0172   96.8552    9.1903 C.3     1  UNL1        0.1167
     18 C          61.7521   91.1793   11.1591 C.3     1  UNL1        0.0047
     19 C          63.2507   91.1786   11.0929 C.3     1  UNL1        0.0241
     20 C          63.9436   91.4118    9.7832 C.3     1  UNL1        0.0047
     21 N          62.1592   88.3119   12.0366 N.pl3   1  UNL1       -0.2949
     22 H          61.3900   88.9200   11.9485 H       1  UNL1        0.1537
     23 C          62.3533   87.2001   11.0486 C.ar    1  UNL1        0.0775
     24 C          62.6752   85.8164   11.5303 C.ar    1  UNL1        0.0237
     25 C          62.8693   84.7046   10.5423 C.ar    1  UNL1        0.0821
     26 C          62.7415   84.9763    9.0727 C.ar    1  UNL1        0.1468
     27 F          62.9356   83.8644    8.0847 F       1  UNL1       -0.2039
     28 C          62.4197   86.3599    8.5910 C.ar    1  UNL1        0.0607
     29 C          62.2255   87.4719    9.5790 C.ar    1  UNL1        0.1557
     30 F          61.9037   88.8554    9.0973 F       1  UNL1       -0.2028
     31 C          63.1911   83.3209   11.0240 C.2     1  UNL1        0.2480
     32 O          64.3181   82.5527   10.3998 O.2     1  UNL1       -0.2701
     33 N          62.3860   82.7055   12.1298 N.am    1  UNL1       -0.3024
     34 H          61.6462   83.2097   12.5395 H       1  UNL1        0.1497
     35 C          62.7078   81.3219   12.6115 C.3     1  UNL1        0.0720
     36 C          62.7200   79.8387   12.3881 C.3     1  UNL1        0.0213
     37 C          63.2530   80.4086   13.6691 C.3     1  UNL1        0.0213
@<TRIPOS>BOND
     1    18    19    1
     2    19    20    1
     3    19     1    1
     4     1     2   ar
     5     2    10    1
     6    10    11   ar
     7    11    12   ar
     8    12    13   ar
     9    13    15    1
    10    15    16    1
    11    15    17    1
    12    13    14   ar
    13     2     3   ar
    14     3     4   ar
    15     4     5   ar
    16     5     6   ar
    17     6     7   ar
    18     7     8   ar
    19     8    21    1
    20    21    23    1
    21    23    24   ar
    22    24    25   ar
    23    25    31    1
    24    31    32    2
    25    31    33   am
    26    33    35    1
    27    35    36    1
    28    36    37    1
    29    25    26   ar
    30    26    27    1
    31    26    28   ar
    32    28    29   ar
    33    29    30    1
    34     8     9   ar
    35     9     1   ar
    36    14    10   ar
    37     9     4   ar
    38    29    23   ar
    39    37    35    1
    40    21    22    1
    41    33    34    1
@<TRIPOS>MOLECULE
*****
 37 41 0 0 0
SMALL
GASTEIGER

@<TRIPOS>ATOM
      1 C          63.2990   84.3649   14.1795 C.ar    1  UNL1        0.0040
      2 C          62.5927   83.1424   14.6860 C.ar    1  UNL1        0.0719
      3 C          62.0256   83.4613   16.0375 C.ar    1  UNL1        0.1049
      4 N          62.3814   84.8809   16.3663 N.ar    1  UNL1       -0.2242
      5 N          62.0904   85.7372   17.5630 N.ar    1  UNL1       -0.1422
      6 C          62.5864   87.1519   17.6113 C.ar    1  UNL1        0.2211
      7 N          63.3735   87.7104   16.4630 N.ar    1  UNL1       -0.2060
      8 C          63.6645   86.8541   15.2663 C.ar    1  UNL1        0.1515
      9 C          63.1684   85.4394   15.2180 C.ar    1  UNL1        0.1107
     10 C          62.4743   81.8312   13.9671 C.ar    1  UNL1        0.2525
     11 N          61.9792   80.5439   14.5569 N.ar    1  UNL1       -0.1057
     12 N          62.0291   79.4942   13.4866 N.ar    1  UNL1       -0.0921
     13 C          62.5551   80.1327   12.2353 C.ar    1  UNL1        0.3120
     14 O          62.8302   81.5770   12.5323 O.2     1  UNL1       -0.4046
     15 N          62.7685   79.4472   10.9183 N.pl3   1  UNL1       -0.2589
     16 C          63.1259   80.2513    9.7035 C.3     1  UNL1        0.1167
     17 C          62.6244   77.9577   10.8160 C.3     1  UNL1        0.1167
     18 C          63.2686   84.9703   11.6530 C.3     1  UNL1        0.0047
     19 C          64.0109   84.4909   12.8652 C.3     1  UNL1        0.0241
     20 C          65.4651   84.1376   12.7630 C.3     1  UNL1        0.0047
     21 N          64.4515   87.4126   14.1180 N.pl3   1  UNL1       -0.2949
     22 H          65.3725   87.1047   13.9565 H       1  UNL1        0.1537
     23 C          63.8352   88.4402   13.2157 C.ar    1  UNL1        0.0775
     24 C          62.8729   88.0180   12.1453 C.ar    1  UNL1        0.0237
     25 C          62.2566   89.0456   11.2430 C.ar    1  UNL1        0.0821
     26 C          62.6026   90.4955   11.4110 C.ar    1  UNL1        0.1468
     27 F          61.9862   91.5231   10.5087 F       1  UNL1       -0.2039
     28 C          63.5648   90.9177   12.4814 C.ar    1  UNL1        0.0607
     29 C          64.1812   89.8901   13.3838 C.ar    1  UNL1        0.1557
     30 F          65.1434   90.3123   14.4541 F       1  UNL1       -0.2028
     31 C          61.2943   88.6234   10.1725 C.2     1  UNL1        0.2480
     32 O          60.2744   89.5942    9.6554 O.2     1  UNL1       -0.2701
     33 N          61.3519   87.2303    9.6193 N.am    1  UNL1       -0.3024
     34 H          62.0212   86.5932    9.9587 H       1  UNL1        0.1497
     35 C          60.3896   86.8081    8.5489 C.3     1  UNL1        0.0720
     36 C          59.0933   86.9987    7.8187 C.3     1  UNL1        0.0213
     37 C          60.0193   85.8862    7.4251 C.3     1  UNL1        0.0213
@<TRIPOS>BOND
     1    18    19    1
     2    19    20    1
     3    19     1    1
     4     1     2   ar
     5     2    10    1
     6    10    11   ar
     7    11    12   ar
     8    12    13   ar
     9    13    15    1
    10    15    16    1
    11    15    17    1
    12    13    14   ar
    13     2     3   ar
    14     3     4   ar
    15     4     5   ar
    16     5     6   ar
    17     6     7   ar
    18     7     8   ar
    19     8    21    1
    20    21    23    1
    21    23    24   ar
    22    24    25   ar
    23    25    31    1
    24    31    32    2
    25    31    33   am
    26    33    35    1
    27    35    36    1
    28    36    37    1
    29    25    26   ar
    30    26    27    1
    31    26    28   ar
    32    28    29   ar
    33    29    30    1
    34     8     9   ar
    35     9     1   ar
    36    14    10   ar
    37     9     4   ar
    38    29    23   ar
    39    37    35    1
    40    21    22    1
    41    33    34    1
@<TRIPOS>MOLECULE
*****
 37 41 0 0 0
SMALL
GASTEIGER

@<TRIPOS>ATOM
      1 C          62.4562   86.8520   11.4837 C.ar    1  UNL1        0.0040
      2 C          62.3320   85.5499   10.7495 C.ar    1  UNL1        0.0719
      3 C          61.4478   85.7719    9.5584 C.ar    1  UNL1        0.1049
      4 N          61.0256   87.2113    9.5564 N.ar    1  UNL1       -0.2242
      5 N          60.1541   88.0004    8.6248 N.ar    1  UNL1       -0.1422
      6 C          59.9059   89.4569    8.8832 C.ar    1  UNL1        0.2211
      7 N          60.5292   90.1244   10.0731 N.ar    1  UNL1       -0.2060
      8 C          61.4007   89.3354   11.0047 C.ar    1  UNL1        0.1515
      9 C          61.6488   87.8788   10.7463 C.ar    1  UNL1        0.1107
     10 C          62.9784   84.2533   11.1383 C.ar    1  UNL1        0.2525
     11 N          64.2088   83.6607   10.5178 N.ar    1  UNL1       -0.1057
     12 N          64.4988   82.3628   11.2117 N.ar    1  UNL1       -0.0921
     13 C          63.4476   82.1534   12.2611 C.ar    1  UNL1        0.3120
     14 O          62.5080   83.3217   12.2157 O.2     1  UNL1       -0.4046
     15 N          63.3528   80.9813   13.1924 N.pl3   1  UNL1       -0.2589
     16 C          62.0756   80.2005   13.2876 C.3     1  UNL1        0.1167
     17 C          64.5351   80.5902   14.0286 C.3     1  UNL1        0.1167
     18 C          63.8308   88.4408   13.0124 C.3     1  UNL1        0.0047
     19 C          63.2488   87.0862   12.7356 C.3     1  UNL1        0.0241
     20 C          63.4593   85.9660   13.7106 C.3     1  UNL1        0.0047
     21 N          62.0239   90.0029   12.1946 N.pl3   1  UNL1       -0.2949
     22 H          61.6506   89.8551   13.0936 H       1  UNL1        0.1537
     23 C          63.2159   90.8955   12.0150 C.ar    1  UNL1        0.0775
     24 C          64.0688   91.2546   13.1956 C.ar    1  UNL1        0.0237
     25 C          65.2607   92.1473   13.0160 C.ar    1  UNL1        0.0821
     26 C          65.5999   92.6809   11.6558 C.ar    1  UNL1        0.1468
     27 F          66.7919   93.5736   11.4761 F       1  UNL1       -0.2039
     28 C          64.7471   92.3219   10.4752 C.ar    1  UNL1        0.0607
     29 C          63.5551   91.4292   10.6548 C.ar    1  UNL1        0.1557
     30 F          62.7023   91.0702    9.4742 F       1  UNL1       -0.2028
     31 C          66.1136   92.5063   14.1966 C.2     1  UNL1        0.2480
     32 O          65.4793   92.7485   15.5341 O.2     1  UNL1       -0.2701
     33 N          67.6008   92.6232   14.0396 N.am    1  UNL1       -0.3024
     34 H          68.0171   92.4643   13.1617 H       1  UNL1        0.1497
     35 C          68.4536   92.9823   15.2201 C.3     1  UNL1        0.0720
     36 C          69.2314   92.5692   16.4344 C.3     1  UNL1        0.0213
     37 C          69.1531   94.0171   16.0506 C.3     1  UNL1        0.0213
@<TRIPOS>BOND
     1    18    19    1
     2    19    20    1
     3    19     1    1
     4     1     2   ar
     5     2    10    1
     6    10    11   ar
     7    11    12   ar
     8    12    13   ar
     9    13    15    1
    10    15    16    1
    11    15    17    1
    12    13    14   ar
    13     2     3   ar
    14     3     4   ar
    15     4     5   ar
    16     5     6   ar
    17     6     7   ar
    18     7     8   ar
    19     8    21    1
    20    21    23    1
    21    23    24   ar
    22    24    25   ar
    23    25    31    1
    24    31    32    2
    25    31    33   am
    26    33    35    1
    27    35    36    1
    28    36    37    1
    29    25    26   ar
    30    26    27    1
    31    26    28   ar
    32    28    29   ar
    33    29    30    1
    34     8     9   ar
    35     9     1   ar
    36    14    10   ar
    37     9     4   ar
    38    29    23   ar
    39    37    35    1
    40    21    22    1
    41    33    34    1
