@<TRIPOS>MOLECULE
*****
 24 27 0 0 0
SMALL
GASTEIGER

@<TRIPOS>ATOM
      1 CL         65.0810   91.6815   13.6039 Cl      1  UNL1       -0.0822
      2 C          64.2398   90.6028   12.9885 C.ar    1  UNL1        0.0592
      3 C          64.2125   89.2329   13.5990 C.ar    1  UNL1        0.0115
      4 C          63.3714   88.1542   12.9837 C.ar    1  UNL1        0.0036
      5 C          62.5575   88.4453   11.7577 C.ar    1  UNL1        0.0305
      6 C          61.7163   87.3665   11.1424 C.ar    1  UNL1        0.0434
      7 C          60.9024   87.6576    9.9164 C.ar    1  UNL1        0.0045
      8 C          60.9297   89.0274    9.3059 C.ar    1  UNL1        0.0561
      9 N          61.7709   90.1062    9.9213 N.ar    1  UNL1       -0.2499
     10 C          62.5848   89.8151   11.1472 C.ar    1  UNL1        0.0829
     11 C          63.4260   90.8939   11.7626 C.ar    1  UNL1        0.0305
     12 C          60.1158   89.3186    8.0800 C.3     1  UNL1        0.0455
     13 C          59.2747   88.2398    7.4646 C.3     1  UNL1        0.0066
     14 C          59.2474   86.8699    8.0752 C.3     1  UNL1        0.0052
     15 C          60.0612   86.5788    9.3011 C.3     1  UNL1        0.0288
     16 N          61.6890   85.9967   11.7529 N.pl3   1  UNL1       -0.3280
     17 H          60.9979   85.7666   12.4152 H       1  UNL1        0.1472
     18 C          62.7148   84.9773   11.3543 C.3     1  UNL1        0.1337
     19 C          62.7664   83.6518   12.0545 C.ar    1  UNL1        0.0788
     20 C          63.0423   82.4012   11.2736 C.ar    1  UNL1        0.0165
     21 C          63.0940   81.0757   11.9738 C.ar    1  UNL1        0.0029
     22 C          62.8697   81.0008   13.4550 C.ar    1  UNL1        0.0207
     23 C          62.5938   82.2514   14.2361 C.ar    1  UNL1        0.0985
     24 N          62.5421   83.5769   13.5358 N.ar    1  UNL1       -0.2464
@<TRIPOS>BOND
     1     1     2    1
     2     2     3   ar
     3     3     4   ar
     4     4     5   ar
     5     5     6   ar
     6     6    16    1
     7    16    18    1
     8    18    19    1
     9    19    20   ar
    10    20    21   ar
    11    21    22   ar
    12    22    23   ar
    13    23    24   ar
    14     6     7   ar
    15     7     8   ar
    16     8     9   ar
    17     9    10   ar
    18    10    11   ar
    19     8    12    1
    20    12    13    1
    21    13    14    1
    22    14    15    1
    23    11     2   ar
    24    10     5   ar
    25    24    19   ar
    26    15     7    1
    27    16    17    1
@<TRIPOS>MOLECULE
*****
 24 27 0 0 0
SMALL
GASTEIGER

@<TRIPOS>ATOM
      1 CL         64.5508   84.3916   14.4716 Cl      1  UNL1       -0.0822
      2 C          63.9077   85.4405   13.6137 C.ar    1  UNL1        0.0592
      3 C          64.1281   86.8936   13.9137 C.ar    1  UNL1        0.0115
      4 C          63.4850   87.9425   13.0557 C.ar    1  UNL1        0.0036
      5 C          62.6213   87.5383   11.8977 C.ar    1  UNL1        0.0305
      6 C          61.9782   88.5872   11.0398 C.ar    1  UNL1        0.0434
      7 C          61.1146   88.1831    9.8818 C.ar    1  UNL1        0.0045
      8 C          60.8941   86.7300    9.5818 C.ar    1  UNL1        0.0561
      9 N          61.5374   85.6811   10.4398 N.ar    1  UNL1       -0.2499
     10 C          62.4009   86.0852   11.5977 C.ar    1  UNL1        0.0829
     11 C          63.0441   85.0363   12.4557 C.ar    1  UNL1        0.0305
     12 C          60.0306   86.3258    8.4239 C.3     1  UNL1        0.0455
     13 C          59.3874   87.3747    7.5659 C.3     1  UNL1        0.0066
     14 C          59.6078   88.8278    7.8659 C.3     1  UNL1        0.0052
     15 C          60.4714   89.2320    9.0238 C.3     1  UNL1        0.0288
     16 N          62.1986   90.0403   11.3397 N.pl3   1  UNL1       -0.3280
     17 H          61.6637   90.4859   12.0359 H       1  UNL1        0.1472
     18 C          63.2341   90.8145   10.5791 C.3     1  UNL1        0.1337
     19 C          64.2589   91.6230   11.3181 C.ar    1  UNL1        0.0788
     20 C          64.5103   91.3650   12.7741 C.ar    1  UNL1        0.0165
     21 C          65.5350   92.1736   13.5131 C.ar    1  UNL1        0.0029
     22 C          66.3084   93.2402   12.7960 C.ar    1  UNL1        0.0207
     23 C          66.0570   93.4982   11.3398 C.ar    1  UNL1        0.0985
     24 N          65.0323   92.6896   10.6009 N.ar    1  UNL1       -0.2464
@<TRIPOS>BOND
     1     1     2    1
     2     2     3   ar
     3     3     4   ar
     4     4     5   ar
     5     5     6   ar
     6     6    16    1
     7    16    18    1
     8    18    19    1
     9    19    20   ar
    10    20    21   ar
    11    21    22   ar
    12    22    23   ar
    13    23    24   ar
    14     6     7   ar
    15     7     8   ar
    16     8     9   ar
    17     9    10   ar
    18    10    11   ar
    19     8    12    1
    20    12    13    1
    21    13    14    1
    22    14    15    1
    23    11     2   ar
    24    10     5   ar
    25    24    19   ar
    26    15     7    1
    27    16    17    1
@<TRIPOS>MOLECULE
*****
 24 27 0 0 0
SMALL
GASTEIGER

@<TRIPOS>ATOM
      1 CL         58.9896   88.6066    6.9204 Cl      1  UNL1       -0.0822
      2 C          59.8248   88.3312    8.1355 C.ar    1  UNL1        0.0592
      3 C          59.8944   86.9427    8.6988 C.ar    1  UNL1        0.0115
      4 C          60.7296   86.6673    9.9139 C.ar    1  UNL1        0.0036
      5 C          61.4953   87.7804   10.5658 C.ar    1  UNL1        0.0305
      6 C          62.3305   87.5050   11.7809 C.ar    1  UNL1        0.0434
      7 C          63.0962   88.6181   12.4327 C.ar    1  UNL1        0.0045
      8 C          63.0266   90.0065   11.8694 C.ar    1  UNL1        0.0561
      9 N          62.1914   90.2819   10.6542 N.ar    1  UNL1       -0.2499
     10 C          61.4257   89.1689   10.0024 C.ar    1  UNL1        0.0829
     11 C          60.5905   89.4443    8.7873 C.ar    1  UNL1        0.0305
     12 C          63.7923   91.1196   12.5212 C.3     1  UNL1        0.0455
     13 C          64.6275   90.8442   13.7363 C.3     1  UNL1        0.0066
     14 C          64.6971   89.4557   14.2996 C.3     1  UNL1        0.0052
     15 C          63.9314   88.3426   13.6478 C.3     1  UNL1        0.0288
     16 N          62.4001   86.1165   12.3442 N.pl3   1  UNL1       -0.3280
     17 H          61.9721   85.9134   13.2072 H       1  UNL1        0.1472
     18 C          63.1219   85.0375   11.5926 C.3     1  UNL1        0.1337
     19 C          62.9721   83.6044   12.0093 C.ar    1  UNL1        0.0788
     20 C          63.2033   82.5059   11.0145 C.ar    1  UNL1        0.0165
     21 C          63.0536   81.0728   11.4313 C.ar    1  UNL1        0.0029
     22 C          62.6726   80.7381   12.8429 C.ar    1  UNL1        0.0207
     23 C          62.4413   81.8366   13.8379 C.ar    1  UNL1        0.0985
     24 N          62.5911   83.2698   13.4211 N.ar    1  UNL1       -0.2464
@<TRIPOS>BOND
     1     1     2    1
     2     2     3   ar
     3     3     4   ar
     4     4     5   ar
     5     5     6   ar
     6     6    16    1
     7    16    18    1
     8    18    19    1
     9    19    20   ar
    10    20    21   ar
    11    21    22   ar
    12    22    23   ar
    13    23    24   ar
    14     6     7   ar
    15     7     8   ar
    16     8     9   ar
    17     9    10   ar
    18    10    11   ar
    19     8    12    1
    20    12    13    1
    21    13    14    1
    22    14    15    1
    23    11     2   ar
    24    10     5   ar
    25    24    19   ar
    26    15     7    1
    27    16    17    1
@<TRIPOS>MOLECULE
*****
 24 27 0 0 0
SMALL
GASTEIGER

@<TRIPOS>ATOM
      1 CL         59.3131   87.7586    7.4106 Cl      1  UNL1       -0.0822
      2 C          60.1555   88.0237    8.6231 C.ar    1  UNL1        0.0592
      3 C          60.3825   89.4325    9.0853 C.ar    1  UNL1        0.0115
      4 C          61.2248   89.6976   10.2978 C.ar    1  UNL1        0.0036
      5 C          61.8402   88.5537   11.0481 C.ar    1  UNL1        0.0305
      6 C          62.6826   88.8188   12.2606 C.ar    1  UNL1        0.0434
      7 C          63.2980   87.6750   13.0110 C.ar    1  UNL1        0.0045
      8 C          63.0711   86.2661   12.5488 C.ar    1  UNL1        0.0561
      9 N          62.2286   86.0011   11.3363 N.ar    1  UNL1       -0.2499
     10 C          61.6133   87.1449   10.5860 C.ar    1  UNL1        0.0829
     11 C          60.7709   86.8799    9.3734 C.ar    1  UNL1        0.0305
     12 C          63.6864   85.1223   13.2991 C.3     1  UNL1        0.0455
     13 C          64.5288   85.3874   14.5116 C.3     1  UNL1        0.0066
     14 C          64.7558   86.7962   14.9737 C.3     1  UNL1        0.0052
     15 C          64.1404   87.9400   14.2235 C.3     1  UNL1        0.0288
     16 N          62.9096   90.2277   12.7228 N.pl3   1  UNL1       -0.3280
     17 H          62.3452   90.6096   13.4333 H       1  UNL1        0.1472
     18 C          63.9966   91.0546   12.1024 C.3     1  UNL1        0.1337
     19 C          64.9986   91.7518   12.9741 C.ar    1  UNL1        0.0788
     20 C          65.5021   91.0846   14.2196 C.ar    1  UNL1        0.0165
     21 C          66.5041   91.7818   15.0913 C.ar    1  UNL1        0.0029
     22 C          67.0027   93.1462   14.7174 C.ar    1  UNL1        0.0207
     23 C          66.4993   93.8134   13.4718 C.ar    1  UNL1        0.0985
     24 N          65.4972   93.1162   12.6002 N.ar    1  UNL1       -0.2464
@<TRIPOS>BOND
     1     1     2    1
     2     2     3   ar
     3     3     4   ar
     4     4     5   ar
     5     5     6   ar
     6     6    16    1
     7    16    18    1
     8    18    19    1
     9    19    20   ar
    10    20    21   ar
    11    21    22   ar
    12    22    23   ar
    13    23    24   ar
    14     6     7   ar
    15     7     8   ar
    16     8     9   ar
    17     9    10   ar
    18    10    11   ar
    19     8    12    1
    20    12    13    1
    21    13    14    1
    22    14    15    1
    23    11     2   ar
    24    10     5   ar
    25    24    19   ar
    26    15     7    1
    27    16    17    1
@<TRIPOS>MOLECULE
*****
 24 27 0 0 0
SMALL
GASTEIGER

@<TRIPOS>ATOM
      1 CL         63.0549   80.3279   13.9444 Cl      1  UNL1       -0.0822
      2 C          63.0140   81.7363   13.4302 C.ar    1  UNL1        0.0592
      3 C          62.5166   82.0139   12.0425 C.ar    1  UNL1        0.0115
      4 C          62.4757   83.4224   11.5282 C.ar    1  UNL1        0.0036
      5 C          62.9322   84.5533   12.4016 C.ar    1  UNL1        0.0305
      6 C          62.8913   85.9618   11.8873 C.ar    1  UNL1        0.0434
      7 C          63.3478   87.0927   12.7607 C.ar    1  UNL1        0.0045
      8 C          63.8452   86.8151   14.1484 C.ar    1  UNL1        0.0561
      9 N          63.8860   85.4065   14.6626 N.ar    1  UNL1       -0.2499
     10 C          63.4296   84.2757   13.7893 C.ar    1  UNL1        0.0829
     11 C          63.4705   82.8671   14.3035 C.ar    1  UNL1        0.0305
     12 C          64.3016   87.9459   15.0217 C.3     1  UNL1        0.0455
     13 C          64.2607   89.3544   14.5074 C.3     1  UNL1        0.0066
     14 C          63.7634   89.6320   13.1198 C.3     1  UNL1        0.0052
     15 C          63.3069   88.5012   12.2464 C.3     1  UNL1        0.0288
     16 N          62.3940   86.2394   10.4997 N.pl3   1  UNL1       -0.3280
     17 H          63.0144   86.1958    9.7365 H       1  UNL1        0.1472
     18 C          60.9513   86.5834   10.2749 C.3     1  UNL1        0.1337
     19 C          60.4339   87.9369   10.6625 C.ar    1  UNL1        0.0788
     20 C          60.6205   89.1040    9.7390 C.ar    1  UNL1        0.0165
     21 C          60.1031   90.4575   10.1267 C.ar    1  UNL1        0.0029
     22 C          59.3990   90.6439   11.4379 C.ar    1  UNL1        0.0207
     23 C          59.2123   89.4768   12.3616 C.ar    1  UNL1        0.0985
     24 N          59.7297   88.1233   11.9739 N.ar    1  UNL1       -0.2464
@<TRIPOS>BOND
     1     1     2    1
     2     2     3   ar
     3     3     4   ar
     4     4     5   ar
     5     5     6   ar
     6     6    16    1
     7    16    18    1
     8    18    19    1
     9    19    20   ar
    10    20    21   ar
    11    21    22   ar
    12    22    23   ar
    13    23    24   ar
    14     6     7   ar
    15     7     8   ar
    16     8     9   ar
    17     9    10   ar
    18    10    11   ar
    19     8    12    1
    20    12    13    1
    21    13    14    1
    22    14    15    1
    23    11     2   ar
    24    10     5   ar
    25    24    19   ar
    26    15     7    1
    27    16    17    1
@<TRIPOS>MOLECULE
*****
 24 27 0 0 0
SMALL
GASTEIGER

@<TRIPOS>ATOM
      1 CL         64.3885   83.3020   15.0278 Cl      1  UNL1       -0.0822
      2 C          64.0051   84.5406   14.2737 C.ar    1  UNL1        0.0592
      3 C          64.5537   85.8729   14.6912 C.ar    1  UNL1        0.0115
      4 C          64.1702   87.1115   13.9371 C.ar    1  UNL1        0.0036
      5 C          63.2382   87.0180   12.7655 C.ar    1  UNL1        0.0305
      6 C          62.8548   88.2566   12.0114 C.ar    1  UNL1        0.0434
      7 C          61.9227   88.1631   10.8398 C.ar    1  UNL1        0.0045
      8 C          61.3741   86.8309   10.4223 C.ar    1  UNL1        0.0561
      9 N          61.7576   85.5922   11.1765 N.ar    1  UNL1       -0.2499
     10 C          62.6896   85.6858   12.3480 C.ar    1  UNL1        0.0829
     11 C          63.0731   84.4471   13.1022 C.ar    1  UNL1        0.0305
     12 C          60.4421   86.7373    9.2508 C.3     1  UNL1        0.0455
     13 C          60.0587   87.9760    8.4967 C.3     1  UNL1        0.0066
     14 C          60.6073   89.3082    8.9142 C.3     1  UNL1        0.0052
     15 C          61.5393   89.4018   10.0857 C.3     1  UNL1        0.0288
     16 N          63.4033   89.5888   12.4289 N.pl3   1  UNL1       -0.3280
     17 H          63.9800   90.0981   11.8147 H       1  UNL1        0.1472
     18 C          63.0732   90.1451   13.7823 C.3     1  UNL1        0.1337
     19 C          64.1064   90.9169   14.5484 C.ar    1  UNL1        0.0788
     20 C          65.4919   91.0697   13.9943 C.ar    1  UNL1        0.0165
     21 C          66.5251   91.8414   14.7604 C.ar    1  UNL1        0.0029
     22 C          66.1729   92.4604   16.0805 C.ar    1  UNL1        0.0207
     23 C          64.7873   92.3076   16.6346 C.ar    1  UNL1        0.0985
     24 N          63.7541   91.5358   15.8686 N.ar    1  UNL1       -0.2464
@<TRIPOS>BOND
     1     1     2    1
     2     2     3   ar
     3     3     4   ar
     4     4     5   ar
     5     5     6   ar
     6     6    16    1
     7    16    18    1
     8    18    19    1
     9    19    20   ar
    10    20    21   ar
    11    21    22   ar
    12    22    23   ar
    13    23    24   ar
    14     6     7   ar
    15     7     8   ar
    16     8     9   ar
    17     9    10   ar
    18    10    11   ar
    19     8    12    1
    20    12    13    1
    21    13    14    1
    22    14    15    1
    23    11     2   ar
    24    10     5   ar
    25    24    19   ar
    26    15     7    1
    27    16    17    1
@<TRIPOS>MOLECULE
*****
 24 27 0 0 0
SMALL
GASTEIGER

@<TRIPOS>ATOM
      1 CL         63.6537   81.9750   14.1812 Cl      1  UNL1       -0.0822
      2 C          63.4927   83.3723   13.6602 C.ar    1  UNL1        0.0592
      3 C          62.8044   83.6091   12.3487 C.ar    1  UNL1        0.0115
      4 C          62.6434   85.0065   11.8277 C.ar    1  UNL1        0.0036
      5 C          63.1707   86.1671   12.6182 C.ar    1  UNL1        0.0305
      6 C          63.0097   87.5644   12.0973 C.ar    1  UNL1        0.0434
      7 C          63.5370   88.7251   12.8878 C.ar    1  UNL1        0.0045
      8 C          64.2253   88.4883   14.1994 C.ar    1  UNL1        0.0561
      9 N          64.3863   87.0909   14.7203 N.ar    1  UNL1       -0.2499
     10 C          63.8590   85.9303   13.9298 C.ar    1  UNL1        0.0829
     11 C          64.0200   84.5329   14.4508 C.ar    1  UNL1        0.0305
     12 C          64.7526   89.6488   14.9899 C.3     1  UNL1        0.0455
     13 C          64.5916   91.0462   14.4689 C.3     1  UNL1        0.0066
     14 C          63.9033   91.2830   13.1574 C.3     1  UNL1        0.0052
     15 C          63.3760   90.1224   12.3668 C.3     1  UNL1        0.0288
     16 N          62.3213   87.8012   10.7857 N.pl3   1  UNL1       -0.3280
     17 H          62.5829   88.5659   10.2235 H       1  UNL1        0.1472
     18 C          61.2345   86.8728   10.3307 C.3     1  UNL1        0.1337
     19 C          61.3642   86.1503    9.0227 C.ar    1  UNL1        0.0788
     20 C          62.6874   85.5764    8.6108 C.ar    1  UNL1        0.0165
     21 C          62.8171   84.8539    7.3027 C.ar    1  UNL1        0.0029
     22 C          61.6236   84.7051    6.4065 C.ar    1  UNL1        0.0207
     23 C          60.3002   85.2790    6.8183 C.ar    1  UNL1        0.0985
     24 N          60.1705   86.0015    8.1264 N.ar    1  UNL1       -0.2464
@<TRIPOS>BOND
     1     1     2    1
     2     2     3   ar
     3     3     4   ar
     4     4     5   ar
     5     5     6   ar
     6     6    16    1
     7    16    18    1
     8    18    19    1
     9    19    20   ar
    10    20    21   ar
    11    21    22   ar
    12    22    23   ar
    13    23    24   ar
    14     6     7   ar
    15     7     8   ar
    16     8     9   ar
    17     9    10   ar
    18    10    11   ar
    19     8    12    1
    20    12    13    1
    21    13    14    1
    22    14    15    1
    23    11     2   ar
    24    10     5   ar
    25    24    19   ar
    26    15     7    1
    27    16    17    1
@<TRIPOS>MOLECULE
*****
 24 27 0 0 0
SMALL
GASTEIGER

@<TRIPOS>ATOM
      1 CL         62.1870   79.5531   13.7228 Cl      1  UNL1       -0.0822
      2 C          62.4215   80.9988   13.3992 C.ar    1  UNL1        0.0592
      3 C          62.3227   81.4754   11.9804 C.ar    1  UNL1        0.0115
      4 C          62.5572   82.9212   11.6567 C.ar    1  UNL1        0.0036
      5 C          62.8906   83.8904   12.7520 C.ar    1  UNL1        0.0305
      6 C          63.1251   85.3362   12.4284 C.ar    1  UNL1        0.0434
      7 C          63.4584   86.3054   13.5236 C.ar    1  UNL1        0.0045
      8 C          63.5572   85.8289   14.9424 C.ar    1  UNL1        0.0561
      9 N          63.3227   84.3830   15.2660 N.ar    1  UNL1       -0.2499
     10 C          62.9894   83.4139   14.1708 C.ar    1  UNL1        0.0829
     11 C          62.7549   81.9680   14.4944 C.ar    1  UNL1        0.0305
     12 C          63.8906   86.7980   16.0377 C.3     1  UNL1        0.0455
     13 C          64.1251   88.2438   15.7140 C.3     1  UNL1        0.0066
     14 C          64.0262   88.7204   14.2952 C.3     1  UNL1        0.0052
     15 C          63.6929   87.7512   13.2000 C.3     1  UNL1        0.0288
     16 N          63.0262   85.8127   11.0095 N.pl3   1  UNL1       -0.3280
     17 H          63.5150   85.3413   10.2967 H       1  UNL1        0.1472
     18 C          62.1826   87.0076   10.6767 C.3     1  UNL1        0.1337
     19 C          61.1563   86.9208    9.5863 C.ar    1  UNL1        0.0788
     20 C          61.3423   85.9517    8.4566 C.ar    1  UNL1        0.0165
     21 C          60.3160   85.8649    7.3662 C.ar    1  UNL1        0.0029
     22 C          59.1035   86.7471    7.4054 C.ar    1  UNL1        0.0207
     23 C          58.9174   87.7162    8.5352 C.ar    1  UNL1        0.0985
     24 N          59.9438   87.8031    9.6256 N.ar    1  UNL1       -0.2464
@<TRIPOS>BOND
     1     1     2    1
     2     2     3   ar
     3     3     4   ar
     4     4     5   ar
     5     5     6   ar
     6     6    16    1
     7    16    18    1
     8    18    19    1
     9    19    20   ar
    10    20    21   ar
    11    21    22   ar
    12    22    23   ar
    13    23    24   ar
    14     6     7   ar
    15     7     8   ar
    16     8     9   ar
    17     9    10   ar
    18    10    11   ar
    19     8    12    1
    20    12    13    1
    21    13    14    1
    22    14    15    1
    23    11     2   ar
    24    10     5   ar
    25    24    19   ar
    26    15     7    1
    27    16    17    1
@<TRIPOS>MOLECULE
*****
 24 27 0 0 0
SMALL
GASTEIGER

@<TRIPOS>ATOM
      1 CL         62.8124   80.5801   11.9918 Cl      1  UNL1       -0.0822
      2 C          62.9904   81.9930   12.4628 C.ar    1  UNL1        0.0592
      3 C          63.4219   83.0568   11.4973 C.ar    1  UNL1        0.0115
      4 C          63.6000   84.4697   11.9684 C.ar    1  UNL1        0.0036
      5 C          63.3465   84.8189   13.4051 C.ar    1  UNL1        0.0305
      6 C          63.5246   86.2318   13.8761 C.ar    1  UNL1        0.0434
      7 C          63.2712   86.5810   15.3128 C.ar    1  UNL1        0.0045
      8 C          62.8397   85.5172   16.2783 C.ar    1  UNL1        0.0561
      9 N          62.6617   84.1042   15.8072 N.ar    1  UNL1       -0.2499
     10 C          62.9151   83.7551   14.3706 C.ar    1  UNL1        0.0829
     11 C          62.7370   82.3421   13.8994 C.ar    1  UNL1        0.0305
     12 C          62.5863   85.8663   17.7149 C.3     1  UNL1        0.0455
     13 C          62.7644   87.2792   18.1860 C.3     1  UNL1        0.0066
     14 C          63.1958   88.3430   17.2205 C.3     1  UNL1        0.0052
     15 C          63.4493   87.9939   15.7839 C.3     1  UNL1        0.0288
     16 N          63.9561   87.2955   12.9106 N.pl3   1  UNL1       -0.3280
     17 H          64.8370   87.2370   12.4751 H       1  UNL1        0.1472
     18 C          63.0452   88.4485   12.6087 C.3     1  UNL1        0.1337
     19 C          62.1278   88.3891   11.4234 C.ar    1  UNL1        0.0788
     20 C          62.0876   89.5282   10.4483 C.ar    1  UNL1        0.0165
     21 C          61.1702   89.4688    9.2631 C.ar    1  UNL1        0.0029
     22 C          60.2931   88.2703    9.0528 C.ar    1  UNL1        0.0207
     23 C          60.3333   87.1312   10.0279 C.ar    1  UNL1        0.0985
     24 N          61.2507   87.1905   11.2132 N.ar    1  UNL1       -0.2464
@<TRIPOS>BOND
     1     1     2    1
     2     2     3   ar
     3     3     4   ar
     4     4     5   ar
     5     5     6   ar
     6     6    16    1
     7    16    18    1
     8    18    19    1
     9    19    20   ar
    10    20    21   ar
    11    21    22   ar
    12    22    23   ar
    13    23    24   ar
    14     6     7   ar
    15     7     8   ar
    16     8     9   ar
    17     9    10   ar
    18    10    11   ar
    19     8    12    1
    20    12    13    1
    21    13    14    1
    22    14    15    1
    23    11     2   ar
    24    10     5   ar
    25    24    19   ar
    26    15     7    1
    27    16    17    1
