@<TRIPOS>MOLECULE
*****
 30 32 0 0 0
SMALL
GASTEIGER

@<TRIPOS>ATOM
      1 C          65.8243   91.7179   13.8051 C.3     1  UNL1        0.0378
      2 C          65.3720   91.3884   15.1967 C.3     1  UNL1        0.0075
      3 C          64.1490   90.5461   15.4082 C.3     1  UNL1        0.0219
      4 C          63.3782   90.0333   14.2279 C.3     1  UNL1        0.0950
      5 N          63.8306   90.3627   12.8363 N.am    1  UNL1       -0.2637
      6 C          63.0598   89.8498   11.6560 C.2     1  UNL1        0.3077
      7 O          63.5122   90.1793   10.2643 O.2     1  UNL1       -0.2522
      8 N          61.8368   89.0076   11.8674 N.am    1  UNL1       -0.2681
      9 C          65.0536   91.2050   12.6248 C.3     1  UNL1        0.0989
     10 H          61.5399   88.7913   12.7809 H       1  UNL1        0.1564
     11 C          61.0662   88.4948   10.6872 C.ar    1  UNL1        0.0516
     12 C          60.9805   87.0192   10.4311 C.ar    1  UNL1        0.0156
     13 C          60.2099   86.5063    9.2509 C.ar    1  UNL1        0.0127
     14 C          59.5249   87.4689    8.3266 C.ar    1  UNL1        0.0578
     15 CL         58.7543   86.9560    7.1463 Cl      1  UNL1       -0.0822
     16 C          59.6106   88.9444    8.5826 C.ar    1  UNL1        0.0127
     17 C          60.3813   89.4573    9.7629 C.ar    1  UNL1        0.0156
     18 C          66.8794   92.4312   14.5976 C.ar    1  UNL1       -0.0212
     19 C          67.0030   93.9235   14.5095 C.ar    1  UNL1       -0.0042
     20 C          68.0580   94.6367   15.3020 C.ar    1  UNL1       -0.0003
     21 C          68.9895   93.8577   16.1826 C.ar    1  UNL1       -0.0000
     22 C          68.8660   92.3654   16.2706 C.ar    1  UNL1       -0.0003
     23 C          67.8109   91.6522   15.4782 C.ar    1  UNL1       -0.0042
     24 C          66.6431   92.2950   12.6886 C.3     1  UNL1        0.0152
     25 C          65.9929   92.6365   11.3807 C.3     1  UNL1        0.0852
     26 N          65.2658   94.9444   10.4346 N.am    1  UNL1       -0.3288
     27 C          66.3339   93.9219   10.6866 C.2     1  UNL1        0.2194
     28 O          67.7430   94.1846   10.2445 O.2     1  UNL1       -0.2753
     29 H          65.4895   95.7880    9.9791 H       1  UNL1        0.1449
     30 H          64.3409   94.7719   10.7248 H       1  UNL1        0.1449
@<TRIPOS>BOND
     1    26    27   am
     2    27    28    2
     3    27    25    1
     4    25    24    1
     5    24     1    1
     6     1    18    1
     7    18    19   ar
     8    19    20   ar
     9    20    21   ar
    10    21    22   ar
    11    22    23   ar
    12     1     2    1
    13     2     3    1
    14     3     4    1
    15     4     5    1
    16     5     6   am
    17     6     7    2
    18     6     8   am
    19     8    11    1
    20    11    12   ar
    21    12    13   ar
    22    13    14   ar
    23    14    15    1
    24    14    16   ar
    25    16    17   ar
    26     5     9    1
    27     9     1    1
    28    23    18   ar
    29    17    11   ar
    30    26    29    1
    31    26    30    1
    32     8    10    1
@<TRIPOS>MOLECULE
*****
 30 32 0 0 0
SMALL
GASTEIGER

@<TRIPOS>ATOM
      1 C          65.6094   91.6496   13.4469 C.3     1  UNL1        0.0378
      2 C          66.0472   92.7944   12.5822 C.3     1  UNL1        0.0075
      3 C          65.4497   92.9754   11.2183 C.3     1  UNL1        0.0219
      4 C          64.4145   92.0115   10.7190 C.3     1  UNL1        0.0950
      5 N          63.9767   90.8667   11.5837 N.am    1  UNL1       -0.2637
      6 C          62.9414   89.9028   11.0844 C.2     1  UNL1        0.3077
      7 O          62.5037   88.7580   11.9491 O.2     1  UNL1       -0.2522
      8 N          62.3440   90.0838    9.7205 N.am    1  UNL1       -0.2681
      9 C          64.5741   90.6857   12.9476 C.3     1  UNL1        0.0989
     10 H          62.6313   90.8352    9.1530 H       1  UNL1        0.1564
     11 C          61.3088   89.1199    9.2213 C.ar    1  UNL1        0.0516
     12 C          60.1572   89.6161    8.3979 C.ar    1  UNL1        0.0156
     13 C          59.1220   88.6523    7.8987 C.ar    1  UNL1        0.0127
     14 C          59.2382   87.1923    8.2229 C.ar    1  UNL1        0.0578
     15 CL         58.2029   86.2284    7.7237 Cl      1  UNL1       -0.0822
     16 C          60.3897   86.6962    9.0463 C.ar    1  UNL1        0.0127
     17 C          61.4250   87.6601    9.5455 C.ar    1  UNL1        0.0156
     18 C          66.6137   92.2935   14.3561 C.ar    1  UNL1       -0.0212
     19 C          67.4537   91.4465   15.2655 C.ar    1  UNL1       -0.0042
     20 C          68.4580   92.0904   16.1747 C.ar    1  UNL1       -0.0003
     21 C          68.6223   93.5814   16.1745 C.ar    1  UNL1       -0.0000
     22 C          67.7824   94.4284   15.2652 C.ar    1  UNL1       -0.0003
     23 C          66.7781   93.7845   14.3560 C.ar    1  UNL1       -0.0042
     24 C          65.5204   90.7284   14.6273 C.3     1  UNL1        0.0152
     25 C          64.3343   89.8239   14.7851 C.3     1  UNL1        0.0852
     26 N          62.8551   88.6194   16.5490 N.am    1  UNL1       -0.3288
     27 C          63.5220   89.8651   16.0455 C.2     1  UNL1        0.2194
     28 O          63.3767   91.1520   16.8024 O.2     1  UNL1       -0.2753
     29 H          62.3220   88.6464   17.3762 H       1  UNL1        0.1449
     30 H          62.9505   87.7748   16.0522 H       1  UNL1        0.1449
@<TRIPOS>BOND
     1    26    27   am
     2    27    28    2
     3    27    25    1
     4    25    24    1
     5    24     1    1
     6     1    18    1
     7    18    19   ar
     8    19    20   ar
     9    20    21   ar
    10    21    22   ar
    11    22    23   ar
    12     1     2    1
    13     2     3    1
    14     3     4    1
    15     4     5    1
    16     5     6   am
    17     6     7    2
    18     6     8   am
    19     8    11    1
    20    11    12   ar
    21    12    13   ar
    22    13    14   ar
    23    14    15    1
    24    14    16   ar
    25    16    17   ar
    26     5     9    1
    27     9     1    1
    28    23    18   ar
    29    17    11   ar
    30    26    29    1
    31    26    30    1
    32     8    10    1
@<TRIPOS>MOLECULE
*****
 30 32 0 0 0
SMALL
GASTEIGER

@<TRIPOS>ATOM
      1 C          63.9460   88.0000   14.6547 C.3     1  UNL1        0.0378
      2 C          63.8079   87.7695   16.1304 C.3     1  UNL1        0.0075
      3 C          63.5412   86.3887   16.6522 C.3     1  UNL1        0.0219
      4 C          63.4125   85.2383   15.6981 C.3     1  UNL1        0.0950
      5 N          63.5505   85.4688   14.2224 N.am    1  UNL1       -0.2637
      6 C          63.4218   84.3185   13.2683 C.2     1  UNL1        0.3077
      7 O          63.5599   84.5490   11.7926 O.2     1  UNL1       -0.2522
      8 N          63.1551   82.9377   13.7901 N.am    1  UNL1       -0.2681
      9 C          63.8173   86.8496   13.7007 C.3     1  UNL1        0.0989
     10 H          63.0644   82.7864   14.7586 H       1  UNL1        0.1564
     11 C          63.0264   81.7874   12.8360 C.ar    1  UNL1        0.0516
     12 C          63.3054   81.9892   11.3760 C.ar    1  UNL1        0.0156
     13 C          63.1768   80.8391   10.4219 C.ar    1  UNL1        0.0127
     14 C          62.7691   79.4870   10.9276 C.ar    1  UNL1        0.0578
     15 CL         62.6404   78.3367    9.9735 Cl      1  UNL1       -0.0822
     16 C          62.4901   79.2851   12.3876 C.ar    1  UNL1        0.0127
     17 C          62.6187   80.4354   13.3417 C.ar    1  UNL1        0.0156
     18 C          64.1468   89.3992   15.1568 C.ar    1  UNL1       -0.0212
     19 C          65.1961   90.2745   14.5382 C.ar    1  UNL1       -0.0042
     20 C          65.3969   91.6737   15.0402 C.ar    1  UNL1       -0.0003
     21 C          64.5485   92.1974   16.1609 C.ar    1  UNL1       -0.0000
     22 C          63.4993   91.3220   16.7795 C.ar    1  UNL1       -0.0003
     23 C          63.2984   89.9229   16.2774 C.ar    1  UNL1       -0.0042
     24 C          64.1538   88.7164   13.3533 C.3     1  UNL1        0.0152
     25 C          63.1152   88.6286   12.2747 C.3     1  UNL1        0.0852
     26 N          60.8230   89.7926   12.6498 N.am    1  UNL1       -0.3288
     27 C          62.1888   89.7826   12.0297 C.2     1  UNL1        0.2194
     28 O          62.6283   90.9266   11.1647 O.2     1  UNL1       -0.2753
     29 H          60.2150   90.5501   12.4890 H       1  UNL1        0.1449
     30 H          60.5347   89.0418   13.2175 H       1  UNL1        0.1449
@<TRIPOS>BOND
     1    26    27   am
     2    27    28    2
     3    27    25    1
     4    25    24    1
     5    24     1    1
     6     1    18    1
     7    18    19   ar
     8    19    20   ar
     9    20    21   ar
    10    21    22   ar
    11    22    23   ar
    12     1     2    1
    13     2     3    1
    14     3     4    1
    15     4     5    1
    16     5     6   am
    17     6     7    2
    18     6     8   am
    19     8    11    1
    20    11    12   ar
    21    12    13   ar
    22    13    14   ar
    23    14    15    1
    24    14    16   ar
    25    16    17   ar
    26     5     9    1
    27     9     1    1
    28    23    18   ar
    29    17    11   ar
    30    26    29    1
    31    26    30    1
    32     8    10    1
@<TRIPOS>MOLECULE
*****
 30 32 0 0 0
SMALL
GASTEIGER

@<TRIPOS>ATOM
      1 C          63.0669   84.4350   13.4846 C.3     1  UNL1        0.0378
      2 C          63.3896   84.0004   14.8834 C.3     1  UNL1        0.0075
      3 C          64.0072   84.9704   15.8466 C.3     1  UNL1        0.0219
      4 C          64.3021   86.3751   15.4108 C.3     1  UNL1        0.0950
      5 N          63.9794   86.8098   14.0119 N.am    1  UNL1       -0.2637
      6 C          64.2743   88.2145   13.5761 C.2     1  UNL1        0.3077
      7 O          63.9516   88.6490   12.1772 O.2     1  UNL1       -0.2522
      8 N          64.8919   89.1845   14.5392 N.am    1  UNL1       -0.2681
      9 C          63.3618   85.8397   13.0488 C.3     1  UNL1        0.0989
     10 H          65.1037   88.8992   15.4574 H       1  UNL1        0.1564
     11 C          65.1868   90.5891   14.1034 C.ar    1  UNL1        0.0516
     12 C          66.0096   91.4885   14.9776 C.ar    1  UNL1        0.0156
     13 C          66.3045   92.8931   14.5418 C.ar    1  UNL1        0.0127
     14 C          65.7766   93.3985   13.2318 C.ar    1  UNL1        0.0578
     15 CL         66.0715   94.8032   12.7960 Cl      1  UNL1       -0.0822
     16 C          64.9539   92.4991   12.3576 C.ar    1  UNL1        0.0127
     17 C          64.6590   91.0944   12.7934 C.ar    1  UNL1        0.0156
     18 C          62.6041   83.0093   13.4276 C.ar    1  UNL1       -0.0212
     19 C          61.6177   82.5001   14.4364 C.ar    1  UNL1       -0.0042
     20 C          61.1549   81.0745   14.3794 C.ar    1  UNL1       -0.0003
     21 C          61.6786   80.1580   13.3137 C.ar    1  UNL1       -0.0000
     22 C          62.6651   80.6671   12.3049 C.ar    1  UNL1       -0.0003
     23 C          63.1278   82.0928   12.3619 C.ar    1  UNL1       -0.0042
     24 C          62.5835   84.3745   12.0659 C.3     1  UNL1        0.0152
     25 C          61.9932   85.5939   11.4220 C.3     1  UNL1        0.0852
     26 N          60.6980   86.3150    9.2884 N.am    1  UNL1       -0.3288
     27 C          61.8980   85.6814    9.9276 C.2     1  UNL1        0.2194
     28 O          63.0027   85.1351    9.0724 O.2     1  UNL1       -0.2753
     29 H          60.6355   86.3724    8.3075 H       1  UNL1        0.1449
     30 H          59.9730   86.6735    9.8497 H       1  UNL1        0.1449
@<TRIPOS>BOND
     1    26    27   am
     2    27    28    2
     3    27    25    1
     4    25    24    1
     5    24     1    1
     6     1    18    1
     7    18    19   ar
     8    19    20   ar
     9    20    21   ar
    10    21    22   ar
    11    22    23   ar
    12     1     2    1
    13     2     3    1
    14     3     4    1
    15     4     5    1
    16     5     6   am
    17     6     7    2
    18     6     8   am
    19     8    11    1
    20    11    12   ar
    21    12    13   ar
    22    13    14   ar
    23    14    15    1
    24    14    16   ar
    25    16    17   ar
    26     5     9    1
    27     9     1    1
    28    23    18   ar
    29    17    11   ar
    30    26    29    1
    31    26    30    1
    32     8    10    1
@<TRIPOS>MOLECULE
*****
 30 32 0 0 0
SMALL
GASTEIGER

@<TRIPOS>ATOM
      1 C          63.8624   87.6405   14.2069 C.3     1  UNL1        0.0378
      2 C          63.3858   88.4994   13.0733 C.3     1  UNL1        0.0075
      3 C          62.8914   87.8642   11.8076 C.3     1  UNL1        0.0219
      4 C          62.8735   86.3701   11.6755 C.3     1  UNL1        0.0950
      5 N          63.3501   85.5113   12.8091 N.am    1  UNL1       -0.2637
      6 C          63.3323   84.0171   12.6771 C.2     1  UNL1        0.3077
      7 O          63.8089   83.1583   13.8107 O.2     1  UNL1       -0.2522
      8 N          62.8378   83.3820   11.4114 N.am    1  UNL1       -0.2681
      9 C          63.8446   86.1464   14.0749 C.3     1  UNL1        0.0989
     10 H          62.5250   83.9457   10.6673 H       1  UNL1        0.1564
     11 C          62.8200   81.8879   11.2794 C.ar    1  UNL1        0.0516
     12 C          63.1300   81.2480    9.9585 C.ar    1  UNL1        0.0156
     13 C          63.1122   79.7540    9.8264 C.ar    1  UNL1        0.0127
     14 C          62.7845   78.8998   11.0152 C.ar    1  UNL1        0.0578
     15 CL         62.7667   77.4057   10.8831 Cl      1  UNL1       -0.0822
     16 C          62.4746   79.5397   12.3359 C.ar    1  UNL1        0.0127
     17 C          62.4923   81.0338   12.4680 C.ar    1  UNL1        0.0156
     18 C          64.0710   89.0003   14.8049 C.ar    1  UNL1       -0.0212
     19 C          65.0574   89.9474   14.1885 C.ar    1  UNL1       -0.0042
     20 C          65.2659   91.3072   14.7865 C.ar    1  UNL1       -0.0003
     21 C          64.4880   91.7198   16.0008 C.ar    1  UNL1       -0.0000
     22 C          63.5015   90.7727   16.6171 C.ar    1  UNL1       -0.0003
     23 C          63.2930   89.4130   16.0192 C.ar    1  UNL1       -0.0042
     24 C          64.4115   87.2539   15.5483 C.3     1  UNL1        0.0152
     25 C          63.8333   86.0830   16.2862 C.3     1  UNL1        0.0852
     26 N          62.8231   86.8606   18.5500 N.am    1  UNL1       -0.3288
     27 C          62.6447   86.2733   17.1814 C.2     1  UNL1        0.2194
     28 O          61.2780   85.8762   16.7078 O.2     1  UNL1       -0.2753
     29 H          62.0431   86.9856   19.1376 H       1  UNL1        0.1449
     30 H          63.7202   87.1212   18.8607 H       1  UNL1        0.1449
@<TRIPOS>BOND
     1    26    27   am
     2    27    28    2
     3    27    25    1
     4    25    24    1
     5    24     1    1
     6     1    18    1
     7    18    19   ar
     8    19    20   ar
     9    20    21   ar
    10    21    22   ar
    11    22    23   ar
    12     1     2    1
    13     2     3    1
    14     3     4    1
    15     4     5    1
    16     5     6   am
    17     6     7    2
    18     6     8   am
    19     8    11    1
    20    11    12   ar
    21    12    13   ar
    22    13    14   ar
    23    14    15    1
    24    14    16   ar
    25    16    17   ar
    26     5     9    1
    27     9     1    1
    28    23    18   ar
    29    17    11   ar
    30    26    29    1
    31    26    30    1
    32     8    10    1
@<TRIPOS>MOLECULE
*****
 30 32 0 0 0
SMALL
GASTEIGER

@<TRIPOS>ATOM
      1 C          65.7435   92.9709   11.8284 C.3     1  UNL1        0.0378
      2 C          66.3852   93.8185   12.8866 C.3     1  UNL1        0.0075
      3 C          66.4250   93.3411   14.3080 C.3     1  UNL1        0.0219
      4 C          65.8232   92.0159   14.6712 C.3     1  UNL1        0.0950
      5 N          65.1815   91.1683   13.6131 N.am    1  UNL1       -0.2637
      6 C          64.5796   89.8432   13.9763 C.2     1  UNL1        0.3077
      7 O          63.9380   88.9957   12.9180 O.2     1  UNL1       -0.2522
      8 N          64.6195   89.3658   15.3977 N.am    1  UNL1       -0.2681
      9 C          65.1416   91.6458   12.1917 C.3     1  UNL1        0.0989
     10 H          65.0407   89.9221   16.0923 H       1  UNL1        0.1564
     11 C          64.0176   88.0407   15.7608 C.ar    1  UNL1        0.0516
     12 C          64.3817   86.8125   14.9803 C.ar    1  UNL1        0.0156
     13 C          63.7800   85.4874   15.3434 C.ar    1  UNL1        0.0127
     14 C          62.8140   85.3904   16.4869 C.ar    1  UNL1        0.0578
     15 CL         62.2122   84.0652   16.8500 Cl      1  UNL1       -0.0822
     16 C          62.4500   86.6185   17.2674 C.ar    1  UNL1        0.0127
     17 C          63.0518   87.9437   16.9043 C.ar    1  UNL1        0.0156
     18 C          66.1744   94.1430   10.9974 C.ar    1  UNL1       -0.0212
     19 C          65.7288   95.5273   11.3650 C.ar    1  UNL1       -0.0042
     20 C          66.1598   96.6993   10.5340 C.ar    1  UNL1       -0.0003
     21 C          67.0364   96.4871    9.3355 C.ar    1  UNL1       -0.0000
     22 C          67.4820   95.1028    8.9679 C.ar    1  UNL1       -0.0003
     23 C          67.0511   93.9308    9.7989 C.ar    1  UNL1       -0.0042
     24 C          65.2515   92.5303   10.4816 C.3     1  UNL1        0.0152
     25 C          63.7785   92.4248   10.2189 C.3     1  UNL1        0.0852
     26 N          62.0826   91.1426   11.7122 N.am    1  UNL1       -0.3288
     27 C          63.0441   91.1624   10.5611 C.2     1  UNL1        0.2194
     28 O          63.2713   89.9199    9.7521 O.2     1  UNL1       -0.2753
     29 H          61.6006   90.3140   11.9368 H       1  UNL1        0.1449
     30 H          61.9336   91.9581   12.2432 H       1  UNL1        0.1449
@<TRIPOS>BOND
     1    26    27   am
     2    27    28    2
     3    27    25    1
     4    25    24    1
     5    24     1    1
     6     1    18    1
     7    18    19   ar
     8    19    20   ar
     9    20    21   ar
    10    21    22   ar
    11    22    23   ar
    12     1     2    1
    13     2     3    1
    14     3     4    1
    15     4     5    1
    16     5     6   am
    17     6     7    2
    18     6     8   am
    19     8    11    1
    20    11    12   ar
    21    12    13   ar
    22    13    14   ar
    23    14    15    1
    24    14    16   ar
    25    16    17   ar
    26     5     9    1
    27     9     1    1
    28    23    18   ar
    29    17    11   ar
    30    26    29    1
    31    26    30    1
    32     8    10    1
