@<TRIPOS>MOLECULE
*****
 40 45 0 0 0
SMALL
GASTEIGER

@<TRIPOS>ATOM
      1 C          64.0657   87.3893   13.9332 C.3     1  UNL1        0.0832
      2 C          64.5757   86.6862   15.1561 C.3     1  UNL1        0.0374
      3 C          64.0197   85.3462   15.5373 C.3     1  UNL1        0.0738
      4 N          62.9538   84.7094   14.6957 N.3     1  UNL1       -0.2722
      5 C          62.4438   85.4126   13.4728 C.3     1  UNL1        0.0829
      6 C          62.9998   86.7525   13.0916 C.3     1  UNL1        0.1103
      7 O          63.6642   89.7494   15.7412 O.2     1  UNL1       -0.2684
      8 C          64.4209   89.9094   14.4559 C.2     1  UNL1        0.2669
      9 N          64.6216   88.7294   13.5519 N.am    1  UNL1       -0.3006
     10 H          65.1182   88.8343   12.7084 H       1  UNL1        0.1497
     11 C          64.9767   91.2494   14.0747 C.ar    1  UNL1        0.1761
     12 C          65.3124   91.7016   12.6844 C.ar    1  UNL1        0.0673
     13 C          65.8377   93.1041   12.7672 C.ar    1  UNL1        0.1792
     14 O          65.8267   93.5188   14.2088 O.2     1  UNL1       -0.3532
     15 N          65.2946   92.3725   15.0168 N.ar    1  UNL1       -0.0723
     16 C          66.2939   93.9445   11.6115 C.ar    1  UNL1        0.0648
     17 C          66.0353   95.4221   11.6104 C.ar    1  UNL1        0.0077
     18 C          66.4915   96.2624   10.4547 C.ar    1  UNL1        0.0299
     19 C          67.2062   95.6252    9.3001 C.ar    1  UNL1        0.1424
     20 F          67.6624   96.4656    8.1444 F       1  UNL1       -0.2041
     21 C          67.4647   94.1477    9.3012 C.ar    1  UNL1        0.0593
     22 C          67.0085   93.3074   10.4569 C.ar    1  UNL1        0.1453
     23 F          67.2671   91.8298   10.4580 F       1  UNL1       -0.2040
     24 C          62.4898   87.4558   11.8687 C.2     1  UNL1        0.2252
     25 O          63.1996   88.6720   11.3521 O.2     1  UNL1       -0.2750
     26 N          61.2699   86.9427   11.1624 N.am    1  UNL1       -0.3010
     27 H          60.8040   86.1445   11.5015 H       1  UNL1        0.1497
     28 C          60.7600   87.6459    9.9396 C.3     1  UNL1        0.1089
     29 C          60.1095   88.6916    9.0832 C.3     1  UNL1        0.0274
     30 C          60.1785   88.8765   10.5702 C.3     1  UNL1        0.0274
     31 C          61.1643   86.6596    8.8843 C.ar    1  UNL1        0.1549
     32 N          62.5554   86.0987    8.8755 N.ar    1  UNL1       -0.2276
     33 C          62.9599   85.1124    7.8201 C.ar    1  UNL1        0.1019
     34 C          61.9731   84.6870    6.7736 C.ar    1  UNL1        0.0413
     35 C          60.5819   85.2479    6.7824 C.ar    1  UNL1        0.1019
     36 N          60.1775   86.2342    7.8377 N.ar    1  UNL1       -0.2276
     37 C          62.3979   83.3694   15.0770 C.3     1  UNL1        0.0721
     38 C          62.2578   82.2933   14.0415 C.3     1  UNL1        0.0160
     39 C          61.8078   80.9166   13.6513 C.3     1  UNL1        0.0014
     40 C          62.4651   81.8061   12.6381 C.3     1  UNL1        0.0014
@<TRIPOS>BOND
     1     7     8    2
     2     8     9   am
     3     1     9    1
     4     1     2    1
     5     2     3    1
     6     3     4    1
     7     4    37    1
     8    37    38    1
     9    38    39    1
    10    39    40    1
    11     4     5    1
    12     5     6    1
    13     6    24    1
    14    24    25    2
    15    24    26   am
    16    26    28    1
    17    28    31    1
    18    31    32   ar
    19    32    33   ar
    20    33    34   ar
    21    34    35   ar
    22    35    36   ar
    23    28    29    1
    24    29    30    1
    25     8    11    1
    26    11    12   ar
    27    12    13   ar
    28    13    16    1
    29    16    17   ar
    30    17    18   ar
    31    18    19   ar
    32    19    20    1
    33    19    21   ar
    34    21    22   ar
    35    22    23    1
    36    13    14   ar
    37    14    15   ar
    38     6     1    1
    39    30    28    1
    40    15    11   ar
    41    40    38    1
    42    36    31   ar
    43    22    16   ar
    44     9    10    1
    45    26    27    1
@<TRIPOS>MOLECULE
*****
 40 45 0 0 0
SMALL
GASTEIGER

@<TRIPOS>ATOM
      1 C          63.2063   84.5202   13.1515 C.3     1  UNL1        0.0832
      2 C          63.5026   83.5876   14.2883 C.3     1  UNL1        0.0374
      3 C          63.3431   82.1074   14.1050 C.3     1  UNL1        0.0738
      4 N          62.8873   81.5599   12.7850 N.3     1  UNL1       -0.2722
      5 C          62.5910   82.4926   11.6482 C.3     1  UNL1        0.0829
      6 C          62.7505   83.9727   11.8315 C.3     1  UNL1        0.1103
      7 O          64.1627   85.6122   15.7769 O.2     1  UNL1       -0.2684
      8 C          63.8440   86.5465   14.6474 C.2     1  UNL1        0.2669
      9 N          63.3658   86.0005   13.3347 N.am    1  UNL1       -0.3006
     10 H          63.1566   86.6136   12.5934 H       1  UNL1        0.1497
     11 C          64.0035   88.0266   14.8307 C.ar    1  UNL1        0.1761
     12 C          64.6849   88.9646   13.8789 C.ar    1  UNL1        0.0673
     13 C          64.6122   90.3464   14.4578 C.ar    1  UNL1        0.1792
     14 O          63.8857   90.2625   15.7676 O.2     1  UNL1       -0.3532
     15 N          63.5096   88.8288   15.9980 N.ar    1  UNL1       -0.0723
     16 C          65.1682   91.5932   13.8363 C.ar    1  UNL1        0.0648
     17 C          64.9078   91.8902   12.3892 C.ar    1  UNL1        0.0077
     18 C          65.4638   93.1370   11.7677 C.ar    1  UNL1        0.0299
     19 C          66.2801   94.0868   12.5932 C.ar    1  UNL1        0.1424
     20 F          66.8361   95.3336   11.9717 F       1  UNL1       -0.2041
     21 C          66.5405   93.7898   14.0402 C.ar    1  UNL1        0.0593
     22 C          65.9845   92.5430   14.6618 C.ar    1  UNL1        0.1453
     23 F          66.2448   92.2459   16.1089 F       1  UNL1       -0.2040
     24 C          62.4542   84.9055   10.6947 C.2     1  UNL1        0.2252
     25 O          63.3899   84.9831    9.5249 O.2     1  UNL1       -0.2750
     26 N          61.2222   85.7605   10.7277 N.am    1  UNL1       -0.3010
     27 H          60.6081   85.7095   11.4955 H       1  UNL1        0.1497
     28 C          60.9259   86.6932    9.5910 C.3     1  UNL1        0.1089
     29 C          60.5440   87.1684    8.2205 C.3     1  UNL1        0.0274
     30 C          60.5764   85.6995    8.5230 C.3     1  UNL1        0.0274
     31 C          61.1725   88.0108   10.2641 C.ar    1  UNL1        0.1549
     32 N          60.2893   88.4533   11.3928 N.ar    1  UNL1       -0.2276
     33 C          60.5358   89.7710   12.0660 C.ar    1  UNL1        0.1019
     34 C          61.6656   90.6461   11.6103 C.ar    1  UNL1        0.0413
     35 C          62.5488   90.2036   10.4816 C.ar    1  UNL1        0.1019
     36 N          62.3023   88.8860    9.8084 N.ar    1  UNL1       -0.2276
     37 C          62.7278   80.0796   12.6018 C.3     1  UNL1        0.0721
     38 C          62.7645   79.4861   11.2247 C.3     1  UNL1        0.0160
     39 C          62.8170   79.6608    9.7358 C.3     1  UNL1        0.0014
     40 C          62.7754   78.2835   10.3284 C.3     1  UNL1        0.0014
@<TRIPOS>BOND
     1     7     8    2
     2     8     9   am
     3     1     9    1
     4     1     2    1
     5     2     3    1
     6     3     4    1
     7     4    37    1
     8    37    38    1
     9    38    39    1
    10    39    40    1
    11     4     5    1
    12     5     6    1
    13     6    24    1
    14    24    25    2
    15    24    26   am
    16    26    28    1
    17    28    31    1
    18    31    32   ar
    19    32    33   ar
    20    33    34   ar
    21    34    35   ar
    22    35    36   ar
    23    28    29    1
    24    29    30    1
    25     8    11    1
    26    11    12   ar
    27    12    13   ar
    28    13    16    1
    29    16    17   ar
    30    17    18   ar
    31    18    19   ar
    32    19    20    1
    33    19    21   ar
    34    21    22   ar
    35    22    23    1
    36    13    14   ar
    37    14    15   ar
    38     6     1    1
    39    30    28    1
    40    15    11   ar
    41    40    38    1
    42    36    31   ar
    43    22    16   ar
    44     9    10    1
    45    26    27    1
@<TRIPOS>MOLECULE
*****
 40 45 0 0 0
SMALL
GASTEIGER

@<TRIPOS>ATOM
      1 C          64.2900   90.2490   13.5019 C.3     1  UNL1        0.0832
      2 C          65.1060   91.3276   12.8531 C.3     1  UNL1        0.0374
      3 C          65.8048   92.3506   13.6988 C.3     1  UNL1        0.0738
      4 N          65.6876   92.2950   15.1931 N.3     1  UNL1       -0.2722
      5 C          64.8716   91.2165   15.8419 C.3     1  UNL1        0.0829
      6 C          64.1728   90.1935   14.9962 C.3     1  UNL1        0.1103
      7 O          61.7788   90.9798   12.0323 O.2     1  UNL1       -0.2684
      8 C          62.3356   89.5913   11.9215 C.2     1  UNL1        0.2669
      9 N          63.5912   89.2260   12.6562 N.am    1  UNL1       -0.3006
     10 H          63.9567   88.3147   12.5835 H       1  UNL1        0.1497
     11 C          61.6368   88.5683   11.0759 C.ar    1  UNL1        0.1761
     12 C          62.2266   87.8415    9.9037 C.ar    1  UNL1        0.0673
     13 C          61.1798   86.9165    9.3573 C.ar    1  UNL1        0.1792
     14 O          59.9430   87.0717   10.1918 O.2     1  UNL1       -0.3532
     15 N          60.2254   88.0925   11.2539 N.ar    1  UNL1       -0.0723
     16 C          61.3414   85.9977    8.1827 C.ar    1  UNL1        0.0648
     17 C          62.6790   85.3869    7.8867 C.ar    1  UNL1        0.0077
     18 C          62.8406   84.4681    6.7122 C.ar    1  UNL1        0.0299
     19 C          61.6645   84.1601    5.8336 C.ar    1  UNL1        0.1424
     20 F          61.8261   83.2414    4.6590 F       1  UNL1       -0.2041
     21 C          60.3269   84.7709    6.1295 C.ar    1  UNL1        0.0593
     22 C          60.1654   85.6897    7.3041 C.ar    1  UNL1        0.1453
     23 F          58.8277   86.3005    7.6001 F       1  UNL1       -0.2040
     24 C          63.3568   89.1149   15.6450 C.2     1  UNL1        0.2252
     25 O          61.9462   89.3952   16.0709 O.2     1  UNL1       -0.2750
     26 N          63.9515   87.7560   15.8678 N.am    1  UNL1       -0.3010
     27 H          64.8774   87.5720   15.5882 H       1  UNL1        0.1497
     28 C          63.1356   86.6774   16.5165 C.3     1  UNL1        0.1089
     29 C          62.3373   85.9450   17.5540 C.3     1  UNL1        0.0274
     30 C          62.9030   87.2999   17.8613 C.3     1  UNL1        0.0274
     31 C          63.0848   85.6803   15.3970 C.ar    1  UNL1        0.1549
     32 N          62.6415   84.2727   15.6659 N.ar    1  UNL1       -0.2276
     33 C          62.5907   83.2755   14.5464 C.ar    1  UNL1        0.1019
     34 C          62.9832   83.6860   13.1582 C.ar    1  UNL1        0.0413
     35 C          63.4265   85.0935   12.8893 C.ar    1  UNL1        0.1019
     36 N          63.4774   86.0907   14.0087 N.ar    1  UNL1       -0.2276
     37 C          66.3864   93.3181   16.0388 C.3     1  UNL1        0.0721
     38 C          67.8847   93.3888   16.0455 C.3     1  UNL1        0.0160
     39 C          69.1469   94.1991   16.0447 C.3     1  UNL1        0.0014
     40 C          69.2175   92.7009   16.0581 C.3     1  UNL1        0.0014
@<TRIPOS>BOND
     1     7     8    2
     2     8     9   am
     3     1     9    1
     4     1     2    1
     5     2     3    1
     6     3     4    1
     7     4    37    1
     8    37    38    1
     9    38    39    1
    10    39    40    1
    11     4     5    1
    12     5     6    1
    13     6    24    1
    14    24    25    2
    15    24    26   am
    16    26    28    1
    17    28    31    1
    18    31    32   ar
    19    32    33   ar
    20    33    34   ar
    21    34    35   ar
    22    35    36   ar
    23    28    29    1
    24    29    30    1
    25     8    11    1
    26    11    12   ar
    27    12    13   ar
    28    13    16    1
    29    16    17   ar
    30    17    18   ar
    31    18    19   ar
    32    19    20    1
    33    19    21   ar
    34    21    22   ar
    35    22    23    1
    36    13    14   ar
    37    14    15   ar
    38     6     1    1
    39    30    28    1
    40    15    11   ar
    41    40    38    1
    42    36    31   ar
    43    22    16   ar
    44     9    10    1
    45    26    27    1
@<TRIPOS>MOLECULE
*****
 40 45 0 0 0
SMALL
GASTEIGER

@<TRIPOS>ATOM
      1 C          61.9842   87.5199   10.9443 C.3     1  UNL1        0.0832
      2 C          61.1392   88.2932    9.9758 C.3     1  UNL1        0.0374
      3 C          60.5306   87.6008    8.7925 C.3     1  UNL1        0.0738
      4 N          60.7670   86.1352    8.5778 N.3     1  UNL1       -0.2722
      5 C          61.6119   85.3619    9.5463 C.3     1  UNL1        0.0829
      6 C          62.2205   86.0543   10.7296 C.3     1  UNL1        0.1103
      7 O          63.0999   90.2893   10.6515 O.2     1  UNL1       -0.2684
      8 C          63.1507   89.5970   11.9812 C.2     1  UNL1        0.2669
      9 N          62.5928   88.2123   12.1276 N.am    1  UNL1       -0.3006
     10 H          62.6261   87.7579   13.0004 H       1  UNL1        0.1497
     11 C          63.7593   90.2894   13.1645 C.ar    1  UNL1        0.1761
     12 C          65.1104   90.9397   13.2067 C.ar    1  UNL1        0.0673
     13 C          65.3098   91.5052   14.5816 C.ar    1  UNL1        0.1792
     14 O          64.0820   91.2045   15.3891 O.2     1  UNL1       -0.3532
     15 N          63.1237   90.4530   14.5133 N.ar    1  UNL1       -0.0723
     16 C          66.5239   92.2421   15.0643 C.ar    1  UNL1        0.0648
     17 C          67.4142   91.6231   16.1007 C.ar    1  UNL1        0.0077
     18 C          68.6283   92.3601   16.5833 C.ar    1  UNL1        0.0299
     19 C          68.9520   93.7160   16.0296 C.ar    1  UNL1        0.1424
     20 F          70.1661   94.4529   16.5123 F       1  UNL1       -0.2041
     21 C          68.0617   94.3350   14.9933 C.ar    1  UNL1        0.0593
     22 C          66.8476   93.5980   14.5106 C.ar    1  UNL1        0.1453
     23 F          65.9573   94.2170   13.4742 F       1  UNL1       -0.2040
     24 C          63.0655   85.2811   11.6982 C.2     1  UNL1        0.2252
     25 O          64.2389   84.4885   11.2033 O.2     1  UNL1       -0.2750
     26 N          62.7370   85.3005   13.1617 N.am    1  UNL1       -0.3010
     27 H          61.9669   85.8207   13.4864 H       1  UNL1        0.1497
     28 C          63.5820   84.5273   14.1303 C.3     1  UNL1        0.1089
     29 C          64.6087   84.2348   15.1839 C.3     1  UNL1        0.0274
     30 C          64.3990   85.6430   14.7114 C.3     1  UNL1        0.0274
     31 C          63.0584   83.1431   13.8855 C.ar    1  UNL1        0.1549
     32 N          63.8492   82.1785   13.0524 N.ar    1  UNL1       -0.2276
     33 C          63.3256   80.7943   12.8076 C.ar    1  UNL1        0.1019
     34 C          62.0112   80.3748   13.3960 C.ar    1  UNL1        0.0413
     35 C          61.2204   81.3394   14.2291 C.ar    1  UNL1        0.1019
     36 N          61.7439   82.7235   14.4739 N.ar    1  UNL1       -0.2276
     37 C          60.1583   85.4428    7.3944 C.3     1  UNL1        0.0721
     38 C          61.0360   84.7261    6.4116 C.3     1  UNL1        0.0160
     39 C          62.4003   84.4320    5.8618 C.3     1  UNL1        0.0014
     40 C          61.1920   83.7788    5.2591 C.3     1  UNL1        0.0014
@<TRIPOS>BOND
     1     7     8    2
     2     8     9   am
     3     1     9    1
     4     1     2    1
     5     2     3    1
     6     3     4    1
     7     4    37    1
     8    37    38    1
     9    38    39    1
    10    39    40    1
    11     4     5    1
    12     5     6    1
    13     6    24    1
    14    24    25    2
    15    24    26   am
    16    26    28    1
    17    28    31    1
    18    31    32   ar
    19    32    33   ar
    20    33    34   ar
    21    34    35   ar
    22    35    36   ar
    23    28    29    1
    24    29    30    1
    25     8    11    1
    26    11    12   ar
    27    12    13   ar
    28    13    16    1
    29    16    17   ar
    30    17    18   ar
    31    18    19   ar
    32    19    20    1
    33    19    21   ar
    34    21    22   ar
    35    22    23    1
    36    13    14   ar
    37    14    15   ar
    38     6     1    1
    39    30    28    1
    40    15    11   ar
    41    40    38    1
    42    36    31   ar
    43    22    16   ar
    44     9    10    1
    45    26    27    1
@<TRIPOS>MOLECULE
*****
 40 45 0 0 0
SMALL
GASTEIGER

@<TRIPOS>ATOM
      1 C          61.9809   87.5751   10.8612 C.3     1  UNL1        0.0832
      2 C          61.3318   88.3781    9.7732 C.3     1  UNL1        0.0374
      3 C          60.7345   87.6853    8.5844 C.3     1  UNL1        0.0738
      4 N          60.7864   86.1896    8.4836 N.3     1  UNL1       -0.2722
      5 C          61.4355   85.3867    9.5716 C.3     1  UNL1        0.0829
      6 C          62.0328   86.0794   10.7604 C.3     1  UNL1        0.1103
      7 O          63.1330   90.3298   10.5698 O.2     1  UNL1       -0.2684
      8 C          63.1543   89.6452   11.9044 C.2     1  UNL1        0.2669
      9 N          62.5783   88.2679   12.0501 N.am    1  UNL1       -0.3006
     10 H          62.5923   87.8186   12.9260 H       1  UNL1        0.1497
     11 C          63.7516   90.3380   13.0931 C.ar    1  UNL1        0.1761
     12 C          65.1108   90.9695   13.1547 C.ar    1  UNL1        0.0673
     13 C          65.2939   91.5427   14.5287 C.ar    1  UNL1        0.1792
     14 O          64.0477   91.2655   15.3163 O.2     1  UNL1       -0.3532
     15 N          63.0946   90.5209   14.4291 N.ar    1  UNL1       -0.0723
     16 C          66.5095   92.2661   15.0275 C.ar    1  UNL1        0.0648
     17 C          67.4024   91.6195   16.0447 C.ar    1  UNL1        0.0077
     18 C          68.6180   92.3429   16.5435 C.ar    1  UNL1        0.0299
     19 C          68.9408   93.7129   16.0251 C.ar    1  UNL1        0.1424
     20 F          70.1565   94.4363   16.5239 F       1  UNL1       -0.2041
     21 C          68.0480   94.3595   15.0080 C.ar    1  UNL1        0.0593
     22 C          66.8323   93.6361   14.5092 C.ar    1  UNL1        0.1453
     23 F          65.9395   94.2828   13.4920 F       1  UNL1       -0.2040
     24 C          62.6820   85.2765   11.8485 C.2     1  UNL1        0.2252
     25 O          64.0567   84.7117   11.6455 O.2     1  UNL1       -0.2750
     26 N          61.9565   85.0384   13.1396 N.am    1  UNL1       -0.3010
     27 H          61.0542   85.4091   13.2729 H       1  UNL1        0.1497
     28 C          62.6056   84.2355   14.2277 C.3     1  UNL1        0.1089
     29 C          63.1925   83.0622   14.9549 C.3     1  UNL1        0.0274
     30 C          62.6519   82.8900   13.5663 C.3     1  UNL1        0.0274
     31 C          62.7847   85.3021   15.2670 C.ar    1  UNL1        0.1549
     32 N          63.6723   86.4789   14.9888 N.ar    1  UNL1       -0.2276
     33 C          63.8514   87.5456   16.0281 C.ar    1  UNL1        0.1019
     34 C          63.1430   87.4354   17.3456 C.ar    1  UNL1        0.0413
     35 C          62.2554   86.2587   17.6239 C.ar    1  UNL1        0.1019
     36 N          62.0762   85.1920   16.5846 N.ar    1  UNL1       -0.2276
     37 C          60.1890   85.4968    7.2948 C.3     1  UNL1        0.0721
     38 C          61.0687   84.7261    6.3556 C.3     1  UNL1        0.0160
     39 C          62.4313   84.4207    5.8077 C.3     1  UNL1        0.0014
     40 C          61.2299   83.6966    5.2767 C.3     1  UNL1        0.0014
@<TRIPOS>BOND
     1     7     8    2
     2     8     9   am
     3     1     9    1
     4     1     2    1
     5     2     3    1
     6     3     4    1
     7     4    37    1
     8    37    38    1
     9    38    39    1
    10    39    40    1
    11     4     5    1
    12     5     6    1
    13     6    24    1
    14    24    25    2
    15    24    26   am
    16    26    28    1
    17    28    31    1
    18    31    32   ar
    19    32    33   ar
    20    33    34   ar
    21    34    35   ar
    22    35    36   ar
    23    28    29    1
    24    29    30    1
    25     8    11    1
    26    11    12   ar
    27    12    13   ar
    28    13    16    1
    29    16    17   ar
    30    17    18   ar
    31    18    19   ar
    32    19    20    1
    33    19    21   ar
    34    21    22   ar
    35    22    23    1
    36    13    14   ar
    37    14    15   ar
    38     6     1    1
    39    30    28    1
    40    15    11   ar
    41    40    38    1
    42    36    31   ar
    43    22    16   ar
    44     9    10    1
    45    26    27    1
@<TRIPOS>MOLECULE
*****
 40 45 0 0 0
SMALL
GASTEIGER

@<TRIPOS>ATOM
      1 C          63.2977   84.8106   13.4045 C.3     1  UNL1        0.0832
      2 C          63.5295   84.0425   14.6719 C.3     1  UNL1        0.0374
      3 C          63.0914   82.6114   14.7723 C.3     1  UNL1        0.0738
      4 N          62.4216   81.9484   13.6053 N.3     1  UNL1       -0.2722
      5 C          62.1899   82.7165   12.3379 C.3     1  UNL1        0.0829
      6 C          62.6279   84.1476   12.2375 C.3     1  UNL1        0.1103
      7 O          63.0826   86.6161   15.7907 O.2     1  UNL1       -0.2684
      8 C          63.6282   87.1445   14.4971 C.2     1  UNL1        0.2669
      9 N          63.7357   86.2417   13.3040 N.am    1  UNL1       -0.3006
     10 H          64.0938   86.5885   12.4550 H       1  UNL1        0.1497
     11 C          64.0662   88.5755   14.3967 C.ar    1  UNL1        0.1761
     12 C          65.3769   89.1316   14.8686 C.ar    1  UNL1        0.0673
     13 C          65.3912   90.6016   14.5703 C.ar    1  UNL1        0.1792
     14 O          64.0892   90.9540   13.9140 O.2     1  UNL1       -0.3532
     15 N          63.2703   89.7018   13.8067 N.ar    1  UNL1       -0.0723
     16 C          66.5108   91.5522   14.8748 C.ar    1  UNL1        0.0648
     17 C          67.7689   91.5154   14.0588 C.ar    1  UNL1        0.0077
     18 C          68.8885   92.4660   14.3633 C.ar    1  UNL1        0.0299
     19 C          68.7500   93.4535   15.4839 C.ar    1  UNL1        0.1424
     20 F          69.8696   94.4042   15.7884 F       1  UNL1       -0.2041
     21 C          67.4919   93.4904   16.2998 C.ar    1  UNL1        0.0593
     22 C          66.3724   92.5398   15.9953 C.ar    1  UNL1        0.1453
     23 F          65.1143   92.5766   16.8113 F       1  UNL1       -0.2040
     24 C          62.3962   84.9157   10.9701 C.2     1  UNL1        0.2252
     25 O          63.3314   84.7475    9.8095 O.2     1  UNL1       -0.2750
     26 N          61.2292   85.8520   10.8633 N.am    1  UNL1       -0.3010
     27 H          60.6153   85.9624   11.6251 H       1  UNL1        0.1497
     28 C          60.9974   86.6202    9.5960 C.3     1  UNL1        0.1089
     29 C          60.7568   86.9019    8.1424 C.3     1  UNL1        0.0274
     30 C          60.8915   85.4862    8.6198 C.3     1  UNL1        0.0274
     31 C          61.0228   88.0209   10.1320 C.ar    1  UNL1        0.1549
     32 N          59.9369   88.4909   11.0539 N.ar    1  UNL1       -0.2276
     33 C          59.9622   89.8917   11.5900 C.ar    1  UNL1        0.1019
     34 C          61.0735   90.8223   11.2040 C.ar    1  UNL1        0.0413
     35 C          62.1593   90.3523   10.2821 C.ar    1  UNL1        0.1019
     36 N          62.1340   88.9516    9.7460 N.ar    1  UNL1       -0.2276
     37 C          61.9836   80.5173   13.7058 C.3     1  UNL1        0.0721
     38 C          60.5489   80.1908   13.9973 C.3     1  UNL1        0.0160
     39 C          59.4838   79.1816   14.3090 C.3     1  UNL1        0.0014
     40 C          59.1291   80.6342   14.1904 C.3     1  UNL1        0.0014
@<TRIPOS>BOND
     1     7     8    2
     2     8     9   am
     3     1     9    1
     4     1     2    1
     5     2     3    1
     6     3     4    1
     7     4    37    1
     8    37    38    1
     9    38    39    1
    10    39    40    1
    11     4     5    1
    12     5     6    1
    13     6    24    1
    14    24    25    2
    15    24    26   am
    16    26    28    1
    17    28    31    1
    18    31    32   ar
    19    32    33   ar
    20    33    34   ar
    21    34    35   ar
    22    35    36   ar
    23    28    29    1
    24    29    30    1
    25     8    11    1
    26    11    12   ar
    27    12    13   ar
    28    13    16    1
    29    16    17   ar
    30    17    18   ar
    31    18    19   ar
    32    19    20    1
    33    19    21   ar
    34    21    22   ar
    35    22    23    1
    36    13    14   ar
    37    14    15   ar
    38     6     1    1
    39    30    28    1
    40    15    11   ar
    41    40    38    1
    42    36    31   ar
    43    22    16   ar
    44     9    10    1
    45    26    27    1
@<TRIPOS>MOLECULE
*****
 40 45 0 0 0
SMALL
GASTEIGER

@<TRIPOS>ATOM
      1 C          63.0091   84.3705   13.6448 C.3     1  UNL1        0.0832
      2 C          62.6433   83.7919   14.9795 C.3     1  UNL1        0.0374
      3 C          62.0886   82.4011   15.0673 C.3     1  UNL1        0.0738
      4 N          61.8997   81.5888   13.8205 N.3     1  UNL1       -0.2722
      5 C          62.2655   82.1674   12.4858 C.3     1  UNL1        0.0829
      6 C          62.8201   83.5583   12.3980 C.3     1  UNL1        0.1103
      7 O          61.4133   86.5411   12.3249 O.2     1  UNL1       -0.2684
      8 C          62.7659   86.8468   12.8969 C.2     1  UNL1        0.2669
      9 N          63.5638   85.7615   13.5569 N.am    1  UNL1       -0.3006
     10 H          64.4515   85.9621   13.9323 H       1  UNL1        0.1497
     11 C          63.3206   88.2377   12.8090 C.ar    1  UNL1        0.1761
     12 C          64.2709   88.8710   13.7815 C.ar    1  UNL1        0.0673
     13 C          64.5600   90.2642   13.3067 C.ar    1  UNL1        0.1792
     14 O          63.7883   90.4919   12.0407 O.2     1  UNL1       -0.3532
     15 N          63.0223   89.2394   11.7331 N.ar    1  UNL1       -0.0723
     16 C          65.4622   91.2557   13.9797 C.ar    1  UNL1        0.0648
     17 C          66.6388   91.8212   13.2408 C.ar    1  UNL1        0.0077
     18 C          67.5411   92.8126   13.9138 C.ar    1  UNL1        0.0299
     19 C          67.2668   93.2385   15.3256 C.ar    1  UNL1        0.1424
     20 F          68.1690   94.2300   15.9986 F       1  UNL1       -0.2041
     21 C          66.0903   92.6731   16.0645 C.ar    1  UNL1        0.0593
     22 C          65.1880   91.6816   15.3915 C.ar    1  UNL1        0.1453
     23 F          64.0114   91.1161   16.1303 F       1  UNL1       -0.2040
     24 C          63.1860   84.1370   11.0633 C.2     1  UNL1        0.2252
     25 O          64.6113   84.1052   10.5972 O.2     1  UNL1       -0.2750
     26 N          62.1263   84.7474   10.1946 N.am    1  UNL1       -0.3010
     27 H          61.1908   84.7683   10.5005 H       1  UNL1        0.1497
     28 C          62.4920   85.3261    8.8600 C.3     1  UNL1        0.1089
     29 C          63.2324   85.5460    7.5741 C.3     1  UNL1        0.0274
     30 C          63.6977   84.4941    8.5369 C.3     1  UNL1        0.0274
     31 C          61.4135   86.3590    8.7195 C.ar    1  UNL1        0.1549
     32 N          60.1498   86.0283    7.9823 N.ar    1  UNL1       -0.2276
     33 C          59.0711   87.0612    7.8418 C.ar    1  UNL1        0.1019
     34 C          59.2563   88.4249    8.4385 C.ar    1  UNL1        0.0413
     35 C          60.5201   88.7556    9.1757 C.ar    1  UNL1        0.1019
     36 N          61.5987   87.7227    9.3163 N.ar    1  UNL1       -0.2276
     37 C          61.3450   80.1979   13.9084 C.3     1  UNL1        0.0721
     38 C          59.8894   79.9882   14.2039 C.3     1  UNL1        0.0160
     39 C          58.7695   79.0942   14.6472 C.3     1  UNL1        0.0014
     40 C          58.4882   80.5191   14.2724 C.3     1  UNL1        0.0014
@<TRIPOS>BOND
     1     7     8    2
     2     8     9   am
     3     1     9    1
     4     1     2    1
     5     2     3    1
     6     3     4    1
     7     4    37    1
     8    37    38    1
     9    38    39    1
    10    39    40    1
    11     4     5    1
    12     5     6    1
    13     6    24    1
    14    24    25    2
    15    24    26   am
    16    26    28    1
    17    28    31    1
    18    31    32   ar
    19    32    33   ar
    20    33    34   ar
    21    34    35   ar
    22    35    36   ar
    23    28    29    1
    24    29    30    1
    25     8    11    1
    26    11    12   ar
    27    12    13   ar
    28    13    16    1
    29    16    17   ar
    30    17    18   ar
    31    18    19   ar
    32    19    20    1
    33    19    21   ar
    34    21    22   ar
    35    22    23    1
    36    13    14   ar
    37    14    15   ar
    38     6     1    1
    39    30    28    1
    40    15    11   ar
    41    40    38    1
    42    36    31   ar
    43    22    16   ar
    44     9    10    1
    45    26    27    1
@<TRIPOS>MOLECULE
*****
 40 45 0 0 0
SMALL
GASTEIGER

@<TRIPOS>ATOM
      1 C          62.3640   93.4352   -3.0231 C.3     1  UNL1        0.0832
      2 C          63.7115   92.7951   -3.1798 C.3     1  UNL1        0.0374
      3 C          64.4517   92.9141   -4.4790 C.3     1  UNL1        0.0738
      4 N          63.8444   93.6730   -5.6214 N.3     1  UNL1       -0.2722
      5 C          62.4970   94.3131   -5.4647 C.3     1  UNL1        0.0829
      6 C          61.7567   94.1942   -4.1656 C.3     1  UNL1        0.1103
      7 O          63.1457   95.1499   -0.6889 O.2     1  UNL1       -0.2684
      8 C          62.0145   94.1736   -0.5568 C.2     1  UNL1        0.2669
      9 N          61.6237   93.3163   -1.7239 N.am    1  UNL1       -0.3006
     10 H          60.8813   92.6755   -1.6372 H       1  UNL1        0.1497
     11 C          61.2743   94.0547    0.7424 C.ar    1  UNL1        0.1761
     12 C          61.0589   92.7915    1.5221 C.ar    1  UNL1        0.0673
     13 C          60.2710   93.1342    2.7515 C.ar    1  UNL1        0.1792
     14 O          59.9994   94.6094    2.7317 O.2     1  UNL1       -0.3532
     15 N          60.6195   95.1782    1.4900 N.ar    1  UNL1       -0.0723
     16 C          59.8317   92.1711    3.8142 C.ar    1  UNL1        0.0648
     17 C          58.3890   92.1090    4.2203 C.ar    1  UNL1        0.0077
     18 C          57.9498   91.1458    5.2830 C.ar    1  UNL1        0.0299
     19 C          58.9532   90.2447    5.9396 C.ar    1  UNL1        0.1424
     20 F          58.5140   89.2815    7.0023 F       1  UNL1       -0.2041
     21 C          60.3958   90.3068    5.5336 C.ar    1  UNL1        0.0593
     22 C          60.8351   91.2700    4.4709 C.ar    1  UNL1        0.1453
     23 F          62.2777   91.3321    4.0648 F       1  UNL1       -0.2040
     24 C          60.4092   94.8342   -4.0088 C.2     1  UNL1        0.2252
     25 O          60.1645   95.8028   -2.8899 O.2     1  UNL1       -0.2750
     26 N          59.3064   94.5057   -4.9710 N.am    1  UNL1       -0.3010
     27 H          59.4670   93.8700   -5.7054 H       1  UNL1        0.1497
     28 C          57.9589   95.1457   -4.8143 C.3     1  UNL1        0.1089
     29 C          56.8496   96.1465   -4.9482 C.3     1  UNL1        0.0274
     30 C          58.1769   96.4067   -5.5969 C.3     1  UNL1        0.0274
     31 C          57.2729   94.1071   -3.9773 C.ar    1  UNL1        0.1549
     32 N          57.3146   92.6651   -4.3884 N.ar    1  UNL1       -0.2276
     33 C          56.6286   91.6263   -3.5514 C.ar    1  UNL1        0.1019
     34 C          55.9010   92.0296   -2.3033 C.ar    1  UNL1        0.0413
     35 C          55.8592   93.4716   -1.8922 C.ar    1  UNL1        0.1019
     36 N          56.5452   94.5103   -2.7291 N.ar    1  UNL1       -0.2276
     37 C          64.5848   93.7920   -6.9206 C.3     1  UNL1        0.0721
     38 C          65.8949   94.5204   -6.9733 C.3     1  UNL1        0.0160
     39 C          66.7061   95.7551   -6.7137 C.3     1  UNL1        0.0014
     40 C          67.3530   94.5474   -7.3243 C.3     1  UNL1        0.0014
@<TRIPOS>BOND
     1     7     8    2
     2     8     9   am
     3     1     9    1
     4     1     2    1
     5     2     3    1
     6     3     4    1
     7     4    37    1
     8    37    38    1
     9    38    39    1
    10    39    40    1
    11     4     5    1
    12     5     6    1
    13     6    24    1
    14    24    25    2
    15    24    26   am
    16    26    28    1
    17    28    31    1
    18    31    32   ar
    19    32    33   ar
    20    33    34   ar
    21    34    35   ar
    22    35    36   ar
    23    28    29    1
    24    29    30    1
    25     8    11    1
    26    11    12   ar
    27    12    13   ar
    28    13    16    1
    29    16    17   ar
    30    17    18   ar
    31    18    19   ar
    32    19    20    1
    33    19    21   ar
    34    21    22   ar
    35    22    23    1
    36    13    14   ar
    37    14    15   ar
    38     6     1    1
    39    30    28    1
    40    15    11   ar
    41    40    38    1
    42    36    31   ar
    43    22    16   ar
    44     9    10    1
    45    26    27    1
@<TRIPOS>MOLECULE
*****
 40 45 0 0 0
SMALL
GASTEIGER

@<TRIPOS>ATOM
      1 C          63.1519   84.6622   12.3265 C.3     1  UNL1        0.0832
      2 C          63.4638   83.8654   11.0945 C.3     1  UNL1        0.0374
      3 C          63.3351   82.3711   11.1152 C.3     1  UNL1        0.0738
      4 N          62.8946   81.6736   12.3679 N.3     1  UNL1       -0.2722
      5 C          62.5827   82.4703   13.5999 C.3     1  UNL1        0.0829
      6 C          62.7114   83.9646   13.5792 C.3     1  UNL1        0.1103
      7 O          60.8734   86.3504   11.3477 O.2     1  UNL1       -0.2684
      8 C          62.1413   87.0007   11.8164 C.2     1  UNL1        0.2669
      9 N          63.2806   86.1565   12.3058 N.am    1  UNL1       -0.3006
     10 H          64.1127   86.5833   12.6134 H       1  UNL1        0.1497
     11 C          62.2699   88.4950   11.7957 C.ar    1  UNL1        0.1761
     12 C          63.5473   89.2681   11.6523 C.ar    1  UNL1        0.0673
     13 C          63.2106   90.7295   11.6827 C.ar    1  UNL1        0.1792
     14 O          61.7250   90.8595   11.8449 O.2     1  UNL1       -0.3532
     15 N          61.1437   89.4785   11.9147 N.ar    1  UNL1       -0.0723
     16 C          64.1878   91.8620   11.5706 C.ar    1  UNL1        0.0648
     17 C          65.0952   92.1861   12.7202 C.ar    1  UNL1        0.0077
     18 C          66.0724   93.3185   12.6081 C.ar    1  UNL1        0.0299
     19 C          66.1421   94.1269   11.3465 C.ar    1  UNL1        0.1424
     20 F          67.1193   95.2594   11.2344 F       1  UNL1       -0.2041
     21 C          65.2347   93.8028   10.1970 C.ar    1  UNL1        0.0593
     22 C          64.2575   92.6703   10.3091 C.ar    1  UNL1        0.1453
     23 F          63.3500   92.3462    9.1595 F       1  UNL1       -0.2040
     24 C          62.3995   84.7615   14.8112 C.2     1  UNL1        0.2252
     25 O          60.9946   84.8149   15.3342 O.2     1  UNL1       -0.2750
     26 N          63.4925   85.5049   15.5202 N.am    1  UNL1       -0.3010
     27 H          64.4145   85.4698   15.1770 H       1  UNL1        0.1497
     28 C          63.1807   86.3017   16.7522 C.3     1  UNL1        0.1089
     29 C          62.7560   86.6195   18.1553 C.3     1  UNL1        0.0274
     30 C          62.7476   85.1993   17.6727 C.3     1  UNL1        0.0274
     31 C          63.5054   87.6807   16.2597 C.ar    1  UNL1        0.1549
     32 N          63.0748   88.8803   17.0505 N.ar    1  UNL1       -0.2276
     33 C          63.3996   90.2595   16.5579 C.ar    1  UNL1        0.1019
     34 C          64.1549   90.4389   15.2745 C.ar    1  UNL1        0.0413
     35 C          64.5855   89.2393   14.4837 C.ar    1  UNL1        0.1019
     36 N          64.2608   87.8602   14.9762 N.ar    1  UNL1       -0.2276
     37 C          62.7659   80.1792   12.3886 C.3     1  UNL1        0.0721
     38 C          62.7451   79.4103   11.1009 C.3     1  UNL1        0.0160
     39 C          62.7198   79.3884    9.6013 C.3     1  UNL1        0.0014
     40 C          62.7343   78.1005   10.3700 C.3     1  UNL1        0.0014
@<TRIPOS>BOND
     1     7     8    2
     2     8     9   am
     3     1     9    1
     4     1     2    1
     5     2     3    1
     6     3     4    1
     7     4    37    1
     8    37    38    1
     9    38    39    1
    10    39    40    1
    11     4     5    1
    12     5     6    1
    13     6    24    1
    14    24    25    2
    15    24    26   am
    16    26    28    1
    17    28    31    1
    18    31    32   ar
    19    32    33   ar
    20    33    34   ar
    21    34    35   ar
    22    35    36   ar
    23    28    29    1
    24    29    30    1
    25     8    11    1
    26    11    12   ar
    27    12    13   ar
    28    13    16    1
    29    16    17   ar
    30    17    18   ar
    31    18    19   ar
    32    19    20    1
    33    19    21   ar
    34    21    22   ar
    35    22    23    1
    36    13    14   ar
    37    14    15   ar
    38     6     1    1
    39    30    28    1
    40    15    11   ar
    41    40    38    1
    42    36    31   ar
    43    22    16   ar
    44     9    10    1
    45    26    27    1
