@<TRIPOS>MOLECULE
*****
 30 34 0 0 0
SMALL
GASTEIGER

@<TRIPOS>ATOM
      1 C          63.9784   84.9056   14.5231 C.3     1  UNL1        0.2253
      2 C          65.4032   84.4683   14.3532 C.3     1  UNL1        0.0558
      3 C          63.6240   85.9156   15.5739 C.ar    1  UNL1        0.2034
      4 N          63.1955   85.6126   16.9791 N.ar    1  UNL1       -0.1278
      5 N          62.9426   86.9156   17.6777 N.ar    1  UNL1       -0.1271
      6 C          63.2148   88.0240   16.7043 C.ar    1  UNL1        0.1865
      7 C          63.1336   89.5161   16.8339 C.ar    1  UNL1        0.0422
      8 C          63.4736   90.3903   15.6632 C.ar    1  UNL1        0.0241
      9 C          63.8947   89.7722   14.3630 C.ar    1  UNL1        0.1015
     10 N          63.9759   88.2800   14.2334 N.ar    1  UNL1       -0.1625
     11 N          63.6360   87.4059   15.4041 N.ar    1  UNL1       -0.1916
     12 C          64.2346   90.6462   13.1924 C.ar    1  UNL1        0.0194
     13 C          63.4509   90.5319   11.9185 C.ar    1  UNL1        0.0016
     14 C          63.7908   91.4060   10.7479 C.ar    1  UNL1        0.0000
     15 C          64.9145   92.3944   10.8511 C.ar    1  UNL1        0.0000
     16 C          65.6981   92.5087   12.1249 C.ar    1  UNL1        0.0000
     17 C          65.3582   91.6346   13.2956 C.ar    1  UNL1        0.0016
     18 O          62.9080   84.3328   13.6421 O.3     1  UNL1       -0.4714
     19 C          61.1293   87.1791    9.4013 C.ar    1  UNL1        0.1402
     20 C          60.9110   87.2731   10.8823 C.ar    1  UNL1        0.0371
     21 C          61.5766   86.2930   11.8022 C.ar    1  UNL1        0.0076
     22 C          62.4606   85.2189   11.2411 C.ar    1  UNL1        0.0519
     23 C          63.1263   84.2388   12.1610 C.ar    1  UNL1        0.1419
     24 C          64.0102   83.1647   11.6000 C.ar    1  UNL1        0.0576
     25 C          64.2285   83.0706   10.1189 C.ar    1  UNL1        0.1019
     26 N          63.5628   84.0507    9.1989 N.ar    1  UNL1       -0.2435
     27 C          62.6789   85.1249    9.7601 C.ar    1  UNL1        0.0872
     28 C          62.0132   86.1050    8.8402 C.ar    1  UNL1        0.0561
     29 C          59.2820   87.7344    7.6608 C.3     1  UNL1        0.2525
     30 O          60.4636   88.1592    8.4813 O.3     1  UNL1       -0.4714
@<TRIPOS>BOND
     1    29    30    1
     2    30    19    1
     3    19    20   ar
     4    20    21   ar
     5    21    22   ar
     6    22    23   ar
     7    23    18    1
     8    18     1    1
     9     1     2    1
    10     1     3    1
    11     3     4   ar
    12     4     5   ar
    13     5     6   ar
    14     6     7   ar
    15     7     8   ar
    16     8     9   ar
    17     9    12    1
    18    12    13   ar
    19    13    14   ar
    20    14    15   ar
    21    15    16   ar
    22    16    17   ar
    23     9    10   ar
    24    10    11   ar
    25    23    24   ar
    26    24    25   ar
    27    25    26   ar
    28    26    27   ar
    29    27    28   ar
    30    28    19   ar
    31    27    22   ar
    32    11     3   ar
    33    11     6   ar
    34    17    12   ar
@<TRIPOS>MOLECULE
*****
 30 34 0 0 0
SMALL
GASTEIGER

@<TRIPOS>ATOM
      1 C          62.0015   89.6849   11.8888 C.3     1  UNL1        0.2253
      2 C          61.8805   90.5808   10.6918 C.3     1  UNL1        0.0558
      3 C          62.8054   90.1245   13.0764 C.ar    1  UNL1        0.2034
      4 N          62.5503   89.7421   14.5042 N.ar    1  UNL1       -0.1278
      5 N          63.5927   90.4050   15.3550 N.ar    1  UNL1       -0.1271
      6 C          64.4921   91.1972   14.4530 C.ar    1  UNL1        0.1865
      7 C          65.6912   92.0540   14.7321 C.ar    1  UNL1        0.0422
      8 C          66.4038   92.7376   13.6028 C.ar    1  UNL1        0.0241
      9 C          65.9172   92.5642   12.1946 C.ar    1  UNL1        0.1015
     10 N          64.7180   91.7074   11.9156 N.ar    1  UNL1       -0.1625
     11 N          64.0055   91.0239   13.0448 N.ar    1  UNL1       -0.1916
     12 C          66.6297   93.2477   11.0654 C.ar    1  UNL1        0.0194
     13 C          67.5367   92.4616   10.1657 C.ar    1  UNL1        0.0016
     14 C          68.2492   93.1451    9.0365 C.ar    1  UNL1        0.0000
     15 C          68.0548   94.6147    8.8070 C.ar    1  UNL1        0.0000
     16 C          67.1479   95.4007    9.7067 C.ar    1  UNL1        0.0000
     17 C          66.4353   94.7172   10.8360 C.ar    1  UNL1        0.0016
     18 O          61.3187   88.3494   11.8981 O.3     1  UNL1       -0.4714
     19 C          63.8126   83.5525   12.0411 C.ar    1  UNL1        0.1402
     20 C          63.4693   84.5777   13.0809 C.ar    1  UNL1        0.0371
     21 C          62.7524   85.8349   12.6867 C.ar    1  UNL1        0.0076
     22 C          62.3789   86.0670   11.2526 C.ar    1  UNL1        0.0519
     23 C          61.6620   87.3242   10.8583 C.ar    1  UNL1        0.1419
     24 C          61.2884   87.5563    9.4243 C.ar    1  UNL1        0.0576
     25 C          61.6317   86.5312    8.3844 C.ar    1  UNL1        0.1019
     26 N          62.3486   85.2739    8.7787 N.ar    1  UNL1       -0.2435
     27 C          62.7222   85.0418   10.2128 C.ar    1  UNL1        0.0872
     28 C          63.4390   83.7846   10.6071 C.ar    1  UNL1        0.0561
     29 C          63.8473   81.2858   13.3104 C.3     1  UNL1        0.2525
     30 O          64.5295   82.2953   12.4354 O.3     1  UNL1       -0.4714
@<TRIPOS>BOND
     1    29    30    1
     2    30    19    1
     3    19    20   ar
     4    20    21   ar
     5    21    22   ar
     6    22    23   ar
     7    23    18    1
     8    18     1    1
     9     1     2    1
    10     1     3    1
    11     3     4   ar
    12     4     5   ar
    13     5     6   ar
    14     6     7   ar
    15     7     8   ar
    16     8     9   ar
    17     9    12    1
    18    12    13   ar
    19    13    14   ar
    20    14    15   ar
    21    15    16   ar
    22    16    17   ar
    23     9    10   ar
    24    10    11   ar
    25    23    24   ar
    26    24    25   ar
    27    25    26   ar
    28    26    27   ar
    29    27    28   ar
    30    28    19   ar
    31    27    22   ar
    32    11     3   ar
    33    11     6   ar
    34    17    12   ar
@<TRIPOS>MOLECULE
*****
 30 34 0 0 0
SMALL
GASTEIGER

@<TRIPOS>ATOM
      1 C          63.9976   89.0627   14.4960 C.3     1  UNL1        0.2253
      2 C          63.6213   89.5410   15.8671 C.3     1  UNL1        0.0558
      3 C          64.0213   87.5936   14.1944 C.ar    1  UNL1        0.2034
      4 N          64.7281   86.5405   14.9953 N.ar    1  UNL1       -0.1278
      5 N          64.4861   85.2156   14.3349 N.ar    1  UNL1       -0.1271
      6 C          63.6297   85.4499   13.1258 C.ar    1  UNL1        0.1865
      7 C          63.0744   84.5149   12.0927 C.ar    1  UNL1        0.0422
      8 C          62.2318   85.0495   10.9727 C.ar    1  UNL1        0.0241
      9 C          61.9446   86.5192   10.8860 C.ar    1  UNL1        0.1015
     10 N          62.5000   87.4542   11.9191 N.ar    1  UNL1       -0.1625
     11 N          63.3425   86.9196   13.0390 N.ar    1  UNL1       -0.1916
     12 C          61.1021   87.0539    9.7660 C.ar    1  UNL1        0.0194
     13 C          60.8802   88.5315    9.6340 C.ar    1  UNL1        0.0016
     14 C          60.0376   89.0662    8.5141 C.ar    1  UNL1        0.0000
     15 C          59.4170   88.1232    7.5262 C.ar    1  UNL1        0.0000
     16 C          59.6389   86.6457    7.6583 C.ar    1  UNL1        0.0000
     17 C          60.4815   86.1109    8.7783 C.ar    1  UNL1        0.0016
     18 O          64.3501   90.0537   13.4266 O.3     1  UNL1       -0.4714
     19 C          65.9649   94.3876   10.6231 C.ar    1  UNL1        0.1402
     20 C          65.1730   93.1614   10.2778 C.ar    1  UNL1        0.0371
     21 C          64.8987   92.1255   11.3274 C.ar    1  UNL1        0.0076
     22 C          65.4163   92.3158   12.7223 C.ar    1  UNL1        0.0519
     23 C          65.1420   91.2799   13.7719 C.ar    1  UNL1        0.1419
     24 C          65.6597   91.4701   15.1668 C.ar    1  UNL1        0.0576
     25 C          66.4517   92.6964   15.5121 C.ar    1  UNL1        0.1019
     26 N          66.7260   93.7323   14.4625 N.ar    1  UNL1       -0.2435
     27 C          66.2083   93.5420   13.0676 C.ar    1  UNL1        0.0872
     28 C          66.4825   94.5779   12.0180 C.ar    1  UNL1        0.0561
     29 C          67.1521   95.1057    8.4265 C.3     1  UNL1        0.2525
     30 O          66.2392   95.4235    9.5735 O.3     1  UNL1       -0.4714
@<TRIPOS>BOND
     1    29    30    1
     2    30    19    1
     3    19    20   ar
     4    20    21   ar
     5    21    22   ar
     6    22    23   ar
     7    23    18    1
     8    18     1    1
     9     1     2    1
    10     1     3    1
    11     3     4   ar
    12     4     5   ar
    13     5     6   ar
    14     6     7   ar
    15     7     8   ar
    16     8     9   ar
    17     9    12    1
    18    12    13   ar
    19    13    14   ar
    20    14    15   ar
    21    15    16   ar
    22    16    17   ar
    23     9    10   ar
    24    10    11   ar
    25    23    24   ar
    26    24    25   ar
    27    25    26   ar
    28    26    27   ar
    29    27    28   ar
    30    28    19   ar
    31    27    22   ar
    32    11     3   ar
    33    11     6   ar
    34    17    12   ar
@<TRIPOS>MOLECULE
*****
 30 34 0 0 0
SMALL
GASTEIGER

@<TRIPOS>ATOM
      1 C          63.4674   89.9221   13.4910 C.3     1  UNL1        0.2253
      2 C          62.8232   89.9174   14.8456 C.3     1  UNL1        0.0558
      3 C          62.6290   89.7364   12.2611 C.ar    1  UNL1        0.2034
      4 N          61.9135   90.8199   11.5101 N.ar    1  UNL1       -0.1278
      5 N          61.2012   90.1879   10.3512 N.ar    1  UNL1       -0.1271
      6 C          61.4765   88.7137   10.3859 C.ar    1  UNL1        0.1865
      7 C          61.0377   87.5895    9.4952 C.ar    1  UNL1        0.0422
      8 C          61.4814   86.1861    9.7849 C.ar    1  UNL1        0.0241
      9 C          62.3638   85.9072   10.9653 C.ar    1  UNL1        0.1015
     10 N          62.8026   87.0315   11.8560 N.ar    1  UNL1       -0.1625
     11 N          62.3590   88.4348   11.5663 N.ar    1  UNL1       -0.1916
     12 C          62.8074   84.5039   11.2551 C.ar    1  UNL1        0.0194
     13 C          63.5102   83.7059   10.1969 C.ar    1  UNL1        0.0016
     14 C          63.9538   82.3027   10.4867 C.ar    1  UNL1        0.0000
     15 C          63.6947   81.6973   11.8345 C.ar    1  UNL1        0.0000
     16 C          62.9921   82.4952   12.8925 C.ar    1  UNL1        0.0000
     17 C          62.5484   83.8986   12.6028 C.ar    1  UNL1        0.0016
     18 O          64.9501   90.1124   13.3663 O.3     1  UNL1       -0.4714
     19 C          65.9364   94.6564   10.6043 C.ar    1  UNL1        0.1402
     20 C          65.3171   93.3372   10.2493 C.ar    1  UNL1        0.0371
     21 C          65.1948   92.2622   11.2883 C.ar    1  UNL1        0.0076
     22 C          65.6917   92.5065   12.6823 C.ar    1  UNL1        0.0519
     23 C          65.5694   91.4316   13.7213 C.ar    1  UNL1        0.1419
     24 C          66.0663   91.6759   15.1153 C.ar    1  UNL1        0.0576
     25 C          66.6857   92.9952   15.4704 C.ar    1  UNL1        0.1019
     26 N          66.8080   94.0701   14.4314 N.ar    1  UNL1       -0.2435
     27 C          66.3110   93.8257   13.0373 C.ar    1  UNL1        0.0872
     28 C          66.4334   94.9007   11.9983 C.ar    1  UNL1        0.0561
     29 C          67.2250   95.7333    8.6219 C.3     1  UNL1        0.2525
     30 O          66.0588   95.7313    9.5652 O.3     1  UNL1       -0.4714
@<TRIPOS>BOND
     1    29    30    1
     2    30    19    1
     3    19    20   ar
     4    20    21   ar
     5    21    22   ar
     6    22    23   ar
     7    23    18    1
     8    18     1    1
     9     1     2    1
    10     1     3    1
    11     3     4   ar
    12     4     5   ar
    13     5     6   ar
    14     6     7   ar
    15     7     8   ar
    16     8     9   ar
    17     9    12    1
    18    12    13   ar
    19    13    14   ar
    20    14    15   ar
    21    15    16   ar
    22    16    17   ar
    23     9    10   ar
    24    10    11   ar
    25    23    24   ar
    26    24    25   ar
    27    25    26   ar
    28    26    27   ar
    29    27    28   ar
    30    28    19   ar
    31    27    22   ar
    32    11     3   ar
    33    11     6   ar
    34    17    12   ar
@<TRIPOS>MOLECULE
*****
 30 34 0 0 0
SMALL
GASTEIGER

@<TRIPOS>ATOM
      1 C          64.0937   89.6792   15.1513 C.3     1  UNL1        0.2253
      2 C          63.4423   90.1331   16.4240 C.3     1  UNL1        0.0558
      3 C          64.3279   90.6572   14.0384 C.ar    1  UNL1        0.2034
      4 N          65.1344   91.9187   14.1285 N.ar    1  UNL1       -0.1278
      5 N          65.1017   92.5866   12.7858 N.ar    1  UNL1       -0.1271
      6 C          64.2749   91.7379   11.8659 C.ar    1  UNL1        0.1865
      7 C          63.8958   91.8968   10.4234 C.ar    1  UNL1        0.0422
      8 C          63.0384   90.8632    9.7549 C.ar    1  UNL1        0.0241
      9 C          62.5602   89.6708   10.5291 C.ar    1  UNL1        0.1015
     10 N          62.9394   89.5119   11.9717 N.ar    1  UNL1       -0.1625
     11 N          63.7967   90.5454   12.6401 N.ar    1  UNL1       -0.1916
     12 C          61.7029   88.6372    9.8608 C.ar    1  UNL1        0.0194
     13 C          62.0036   87.1794   10.0463 C.ar    1  UNL1        0.0016
     14 C          61.1463   86.1459    9.3779 C.ar    1  UNL1        0.0000
     15 C          59.9882   86.5701    8.5240 C.ar    1  UNL1        0.0000
     16 C          59.6876   88.0279    8.3386 C.ar    1  UNL1        0.0000
     17 C          60.5449   89.0615    9.0069 C.ar    1  UNL1        0.0016
     18 O          64.5110   88.2473   14.9916 O.3     1  UNL1       -0.4714
     19 C          63.3786   83.0782   13.8743 C.ar    1  UNL1        0.1402
     20 C          64.1201   84.1610   13.1479 C.ar    1  UNL1        0.0371
     21 C          64.2504   85.5231   13.7625 C.ar    1  UNL1        0.0076
     22 C          63.6392   85.8024   15.1035 C.ar    1  UNL1        0.0519
     23 C          63.7695   87.1645   15.7181 C.ar    1  UNL1        0.1419
     24 C          63.1582   87.4439   17.0591 C.ar    1  UNL1        0.0576
     25 C          62.4167   86.3611   17.7855 C.ar    1  UNL1        0.1019
     26 N          62.2864   84.9990   17.1710 N.ar    1  UNL1       -0.2435
     27 C          62.8976   84.7197   15.8299 C.ar    1  UNL1        0.0872
     28 C          62.7673   83.3576   15.2153 C.ar    1  UNL1        0.0561
     29 C          61.9891   80.9240   13.4518 C.3     1  UNL1        0.2525
     30 O          63.2483   81.7161   13.2597 O.3     1  UNL1       -0.4714
@<TRIPOS>BOND
     1    29    30    1
     2    30    19    1
     3    19    20   ar
     4    20    21   ar
     5    21    22   ar
     6    22    23   ar
     7    23    18    1
     8    18     1    1
     9     1     2    1
    10     1     3    1
    11     3     4   ar
    12     4     5   ar
    13     5     6   ar
    14     6     7   ar
    15     7     8   ar
    16     8     9   ar
    17     9    12    1
    18    12    13   ar
    19    13    14   ar
    20    14    15   ar
    21    15    16   ar
    22    16    17   ar
    23     9    10   ar
    24    10    11   ar
    25    23    24   ar
    26    24    25   ar
    27    25    26   ar
    28    26    27   ar
    29    27    28   ar
    30    28    19   ar
    31    27    22   ar
    32    11     3   ar
    33    11     6   ar
    34    17    12   ar
@<TRIPOS>MOLECULE
*****
 30 34 0 0 0
SMALL
GASTEIGER

@<TRIPOS>ATOM
      1 C          60.5036   89.8311   11.4874 C.3     1  UNL1        0.2253
      2 C          59.2414   90.6311   11.6182 C.3     1  UNL1        0.0558
      3 C          60.6416   88.8226   10.3858 C.ar    1  UNL1        0.2034
      4 N          60.1794   88.9954    8.9693 N.ar    1  UNL1       -0.1278
      5 N          60.5181   87.7438    8.2152 N.ar    1  UNL1       -0.1271
      6 C          61.1896   86.7973    9.1657 C.ar    1  UNL1        0.1865
      7 C          61.7414   85.4146    8.9830 C.ar    1  UNL1        0.0422
      8 C          62.3696   84.6985   10.1418 C.ar    1  UNL1        0.0241
      9 C          62.4458   85.3653   11.4833 C.ar    1  UNL1        0.1015
     10 N          61.8940   86.7481   11.6660 N.ar    1  UNL1       -0.1625
     11 N          61.2659   87.4641   10.5072 N.ar    1  UNL1       -0.1916
     12 C          63.0740   84.6492   12.6421 C.ar    1  UNL1        0.0194
     13 C          62.9702   83.1565   12.7467 C.ar    1  UNL1        0.0016
     14 C          63.5983   82.4404   13.9054 C.ar    1  UNL1        0.0000
     15 C          64.3302   83.2172   14.9596 C.ar    1  UNL1        0.0000
     16 C          64.4339   84.7099   14.8550 C.ar    1  UNL1        0.0000
     17 C          63.8058   85.4260   13.6961 C.ar    1  UNL1        0.0016
     18 O          61.6278   90.0398   12.4584 O.3     1  UNL1       -0.4714
     19 C          65.9215   91.9887   15.1070 C.ar    1  UNL1        0.1402
     20 C          64.7032   91.2196   15.5243 C.ar    1  UNL1        0.0371
     21 C          63.6781   90.8264   14.5023 C.ar    1  UNL1        0.0076
     22 C          63.8713   91.2021   13.0631 C.ar    1  UNL1        0.0519
     23 C          62.8461   90.8089   12.0411 C.ar    1  UNL1        0.1419
     24 C          63.0394   91.1846   10.6019 C.ar    1  UNL1        0.0576
     25 C          64.2578   91.9537   10.1846 C.ar    1  UNL1        0.1019
     26 N          65.2829   92.3470   11.2066 N.ar    1  UNL1       -0.2435
     27 C          65.0896   91.9712   12.6458 C.ar    1  UNL1        0.0872
     28 C          66.1148   92.3645   13.6678 C.ar    1  UNL1        0.0561
     29 C          67.9965   93.3969   15.7862 C.3     1  UNL1        0.2525
     30 O          66.9467   92.3820   16.1290 O.3     1  UNL1       -0.4714
@<TRIPOS>BOND
     1    29    30    1
     2    30    19    1
     3    19    20   ar
     4    20    21   ar
     5    21    22   ar
     6    22    23   ar
     7    23    18    1
     8    18     1    1
     9     1     2    1
    10     1     3    1
    11     3     4   ar
    12     4     5   ar
    13     5     6   ar
    14     6     7   ar
    15     7     8   ar
    16     8     9   ar
    17     9    12    1
    18    12    13   ar
    19    13    14   ar
    20    14    15   ar
    21    15    16   ar
    22    16    17   ar
    23     9    10   ar
    24    10    11   ar
    25    23    24   ar
    26    24    25   ar
    27    25    26   ar
    28    26    27   ar
    29    27    28   ar
    30    28    19   ar
    31    27    22   ar
    32    11     3   ar
    33    11     6   ar
    34    17    12   ar
@<TRIPOS>MOLECULE
*****
 30 34 0 0 0
SMALL
GASTEIGER

@<TRIPOS>ATOM
      1 C          62.6550   85.3577    9.1786 C.3     1  UNL1        0.2253
      2 C          62.8597   84.5857    7.9088 C.3     1  UNL1        0.0558
      3 C          61.5376   86.3533    9.2791 C.ar    1  UNL1        0.2034
      4 N          60.1815   86.2230    8.6514 N.ar    1  UNL1       -0.1278
      5 N          59.3859   87.4432    9.0094 N.ar    1  UNL1       -0.1271
      6 C          60.2503   88.3276    9.8584 C.ar    1  UNL1        0.1865
      7 C          59.9983   89.6592   10.5012 C.ar    1  UNL1        0.0422
      8 C          61.0761   90.3173   11.3107 C.ar    1  UNL1        0.0241
      9 C          62.4059   89.6437   11.4774 C.ar    1  UNL1        0.1015
     10 N          62.6579   88.3120   10.8346 N.ar    1  UNL1       -0.1625
     11 N          61.5801   87.6540   10.0251 N.ar    1  UNL1       -0.1916
     12 C          63.4837   90.3017   12.2869 C.ar    1  UNL1        0.0194
     13 C          64.1536   91.5428   11.7758 C.ar    1  UNL1        0.0016
     14 C          65.2314   92.2008   12.5853 C.ar    1  UNL1        0.0000
     15 C          65.6394   91.6178   13.9059 C.ar    1  UNL1        0.0000
     16 C          64.9696   90.3768   14.4168 C.ar    1  UNL1        0.0000
     17 C          63.8917   89.7187   13.6073 C.ar    1  UNL1        0.0016
     18 O          63.5677   85.1340   10.3477 O.3     1  UNL1       -0.4714
     19 C          63.4239   85.2654   15.7525 C.ar    1  UNL1        0.1402
     20 C          63.7886   86.2670   14.6971 C.ar    1  UNL1        0.0371
     21 C          63.7150   85.8893   13.2473 C.ar    1  UNL1        0.0076
     22 C          63.2767   84.5101   12.8529 C.ar    1  UNL1        0.0519
     23 C          63.2030   84.1325   11.4031 C.ar    1  UNL1        0.1419
     24 C          62.7647   82.7533   11.0086 C.ar    1  UNL1        0.0576
     25 C          62.4000   81.7516   12.0640 C.ar    1  UNL1        0.1019
     26 N          62.4736   82.1293   13.5138 N.ar    1  UNL1       -0.2435
     27 C          62.9120   83.5086   13.9082 C.ar    1  UNL1        0.0872
     28 C          62.9856   83.8862   15.3581 C.ar    1  UNL1        0.0561
     29 C          62.5809   86.6963   17.7505 C.3     1  UNL1        0.2525
     30 O          63.4975   85.6431   17.2023 O.3     1  UNL1       -0.4714
@<TRIPOS>BOND
     1    29    30    1
     2    30    19    1
     3    19    20   ar
     4    20    21   ar
     5    21    22   ar
     6    22    23   ar
     7    23    18    1
     8    18     1    1
     9     1     2    1
    10     1     3    1
    11     3     4   ar
    12     4     5   ar
    13     5     6   ar
    14     6     7   ar
    15     7     8   ar
    16     8     9   ar
    17     9    12    1
    18    12    13   ar
    19    13    14   ar
    20    14    15   ar
    21    15    16   ar
    22    16    17   ar
    23     9    10   ar
    24    10    11   ar
    25    23    24   ar
    26    24    25   ar
    27    25    26   ar
    28    26    27   ar
    29    27    28   ar
    30    28    19   ar
    31    27    22   ar
    32    11     3   ar
    33    11     6   ar
    34    17    12   ar
@<TRIPOS>MOLECULE
*****
 30 34 0 0 0
SMALL
GASTEIGER

@<TRIPOS>ATOM
      1 C          60.8873   89.4519   11.8643 C.3     1  UNL1        0.2253
      2 C          59.7498   90.4297   11.8748 C.3     1  UNL1        0.0558
      3 C          60.8019   88.2111   11.0258 C.ar    1  UNL1        0.2034
      4 N          61.1169   86.8167   11.4801 N.ar    1  UNL1       -0.1278
      5 N          60.8963   85.8906   10.3209 N.ar    1  UNL1       -0.1271
      6 C          60.4449   86.7127    9.1502 C.ar    1  UNL1        0.1865
      7 C          60.0795   86.3406    7.7439 C.ar    1  UNL1        0.0422
      8 C          59.6557   87.4027    6.7730 C.ar    1  UNL1        0.0241
      9 C          59.5974   88.8369    7.2087 C.ar    1  UNL1        0.1015
     10 N          59.9629   89.2089    8.6152 N.ar    1  UNL1       -0.1625
     11 N          60.3866   88.1468    9.5859 N.ar    1  UNL1       -0.1916
     12 C          59.1737   89.8990    6.2380 C.ar    1  UNL1        0.0194
     13 C          57.7159   90.1790    6.0219 C.ar    1  UNL1        0.0016
     14 C          57.2922   91.2411    5.0512 C.ar    1  UNL1        0.0000
     15 C          58.3262   92.0232    4.2965 C.ar    1  UNL1        0.0000
     16 C          59.7838   91.7431    4.5126 C.ar    1  UNL1        0.0000
     17 C          60.2076   90.6810    5.4834 C.ar    1  UNL1        0.0016
     18 O          62.1101   89.7149   12.6923 O.3     1  UNL1       -0.4714
     19 C          66.1267   92.4447   15.0723 C.ar    1  UNL1        0.1402
     20 C          65.0725   91.5011   15.5704 C.ar    1  UNL1        0.0371
     21 C          64.0850   90.9057   14.6110 C.ar    1  UNL1        0.0076
     22 C          64.1518   91.2539   13.1536 C.ar    1  UNL1        0.0519
     23 C          63.1644   90.6585   12.1942 C.ar    1  UNL1        0.1419
     24 C          63.2312   91.0067   10.7367 C.ar    1  UNL1        0.0576
     25 C          64.2855   91.9503   10.2386 C.ar    1  UNL1        0.1019
     26 N          65.2729   92.5457   11.1979 N.ar    1  UNL1       -0.2435
     27 C          65.2061   92.1975   12.6555 C.ar    1  UNL1        0.0872
     28 C          66.1936   92.7929   13.6149 C.ar    1  UNL1        0.0561
     29 C          68.5661   93.1159   15.6629 C.3     1  UNL1        0.2525
     30 O          67.1142   93.0401   16.0317 O.3     1  UNL1       -0.4714
@<TRIPOS>BOND
     1    29    30    1
     2    30    19    1
     3    19    20   ar
     4    20    21   ar
     5    21    22   ar
     6    22    23   ar
     7    23    18    1
     8    18     1    1
     9     1     2    1
    10     1     3    1
    11     3     4   ar
    12     4     5   ar
    13     5     6   ar
    14     6     7   ar
    15     7     8   ar
    16     8     9   ar
    17     9    12    1
    18    12    13   ar
    19    13    14   ar
    20    14    15   ar
    21    15    16   ar
    22    16    17   ar
    23     9    10   ar
    24    10    11   ar
    25    23    24   ar
    26    24    25   ar
    27    25    26   ar
    28    26    27   ar
    29    27    28   ar
    30    28    19   ar
    31    27    22   ar
    32    11     3   ar
    33    11     6   ar
    34    17    12   ar
@<TRIPOS>MOLECULE
*****
 30 34 0 0 0
SMALL
GASTEIGER

@<TRIPOS>ATOM
      1 C          60.9502   90.3094   10.6265 C.3     1  UNL1        0.2253
      2 C          59.8938   90.7922   11.5758 C.3     1  UNL1        0.0558
      3 C          60.5803   89.4003    9.4922 C.ar    1  UNL1        0.2034
      4 N          59.7443   89.7697    8.3028 N.ar    1  UNL1       -0.1278
      5 N          59.6288   88.5599    7.4236 N.ar    1  UNL1       -0.1271
      6 C          60.3935   87.4427    8.0697 C.ar    1  UNL1        0.1865
      7 C          60.6302   86.0196    7.6590 C.ar    1  UNL1        0.0422
      8 C          61.4551   85.1159    8.5267 C.ar    1  UNL1        0.0241
      9 C          62.0431   85.6353    9.8051 C.ar    1  UNL1        0.1015
     10 N          61.8063   87.0584   10.2158 N.ar    1  UNL1       -0.1625
     11 N          60.9815   87.9621    9.3481 N.ar    1  UNL1       -0.1916
     12 C          62.8679   84.7316   10.6729 C.ar    1  UNL1        0.0194
     13 C          63.6999   83.6492   10.0512 C.ar    1  UNL1        0.0016
     14 C          64.5247   82.7455   10.9190 C.ar    1  UNL1        0.0000
     15 C          64.5175   82.9242   12.4083 C.ar    1  UNL1        0.0000
     16 C          63.6856   84.0064   13.0299 C.ar    1  UNL1        0.0000
     17 C          62.8607   84.9102   12.1622 C.ar    1  UNL1        0.0016
     18 O          62.3763   90.7357   10.8116 O.3     1  UNL1       -0.4714
     19 C          66.5303   92.7463   13.6316 C.ar    1  UNL1        0.1402
     20 C          65.7531   93.2242   12.4410 C.ar    1  UNL1        0.0371
     21 C          64.6275   92.3947   11.8978 C.ar    1  UNL1        0.0076
     22 C          64.2791   91.0873   12.5453 C.ar    1  UNL1        0.0519
     23 C          63.1535   90.2578   12.0022 C.ar    1  UNL1        0.1419
     24 C          62.8051   88.9504   12.6497 C.ar    1  UNL1        0.0576
     25 C          63.5822   88.4725   13.8404 C.ar    1  UNL1        0.1019
     26 N          64.7078   89.3020   14.3835 N.ar    1  UNL1       -0.2435
     27 C          65.0562   90.6094   13.7359 C.ar    1  UNL1        0.0872
     28 C          66.1818   91.4389   14.2791 C.ar    1  UNL1        0.0561
     29 C          67.9927   93.5187   15.6352 C.3     1  UNL1        0.2525
     30 O          67.6559   93.5758   14.1747 O.3     1  UNL1       -0.4714
@<TRIPOS>BOND
     1    29    30    1
     2    30    19    1
     3    19    20   ar
     4    20    21   ar
     5    21    22   ar
     6    22    23   ar
     7    23    18    1
     8    18     1    1
     9     1     2    1
    10     1     3    1
    11     3     4   ar
    12     4     5   ar
    13     5     6   ar
    14     6     7   ar
    15     7     8   ar
    16     8     9   ar
    17     9    12    1
    18    12    13   ar
    19    13    14   ar
    20    14    15   ar
    21    15    16   ar
    22    16    17   ar
    23     9    10   ar
    24    10    11   ar
    25    23    24   ar
    26    24    25   ar
    27    25    26   ar
    28    26    27   ar
    29    27    28   ar
    30    28    19   ar
    31    27    22   ar
    32    11     3   ar
    33    11     6   ar
    34    17    12   ar
