@<TRIPOS>MOLECULE
*****
 29 31 0 0 0
SMALL
GASTEIGER

@<TRIPOS>ATOM
      1 C          64.0266   87.3963   15.0904 C.3     1  UNL1        0.0239
      2 C          64.1791   88.8785   14.9182 C.3     1  UNL1        0.0240
      3 C          63.4808   88.3319   16.1280 C.3     1  UNL1        0.0057
      4 C          63.1359   89.6118   16.8301 C.3     1  UNL1        0.0004
      5 C          62.9023   87.3408   17.0940 C.3     1  UNL1        0.0004
      6 C          64.6703   90.0499   14.1203 C.ar    1  UNL1       -0.0224
      7 C          65.8903   90.8012   14.5643 C.ar    1  UNL1       -0.0029
      8 C          66.3814   91.9725   13.7664 C.ar    1  UNL1        0.0196
      9 C          65.6525   92.3926   12.5245 C.ar    1  UNL1        0.1217
     10 C          64.4326   91.6413   12.0805 C.ar    1  UNL1        0.0196
     11 C          63.9414   90.4700   12.8784 C.ar    1  UNL1       -0.0029
     12 S          66.1437   93.5640   11.7266 S.O2    1  UNL1        0.0572
     13 N          66.6349   94.7353   10.9286 N.3     1  UNL1       -0.2035
     14 O          66.6410   94.2124   12.9844 O.2     1  UNL1       -0.1532
     15 O          65.6465   92.9157   10.4687 O.2     1  UNL1       -0.1532
     16 H          67.0650   95.4165   11.5542 H       1  UNL1        0.1442
     17 H          65.8499   95.1686   10.4423 H       1  UNL1        0.1442
     18 C          64.2538   86.0003   14.5908 C.3     1  UNL1        0.0874
     19 N          63.1263   85.2357   13.9629 N.pl3   1  UNL1       -0.3302
     20 H          62.3653   84.9402   14.5131 H       1  UNL1        0.1469
     21 C          63.8424   83.6778   12.0109 C.ar    1  UNL1        0.1517
     22 C          63.8745   83.3635   10.5445 C.ar    1  UNL1        0.0390
     23 C          63.2226   84.2927    9.5639 C.ar    1  UNL1        0.0146
     24 C          62.5387   85.5362   10.0495 C.ar    1  UNL1        0.0591
     25 CL         61.8868   86.4653    9.0688 Cl      1  UNL1       -0.0822
     26 C          62.5066   85.8505   11.5158 C.ar    1  UNL1        0.0288
     27 C          63.1584   84.9213   12.4965 C.ar    1  UNL1        0.0799
     28 C          63.7202   81.5978   13.5628 C.3     1  UNL1        0.2525
     29 O          64.4943   82.7487   12.9915 O.3     1  UNL1       -0.4702
@<TRIPOS>BOND
     1    28    29    1
     2    29    21    1
     3    21    22   ar
     4    22    23   ar
     5    23    24   ar
     6    24    25    1
     7    24    26   ar
     8    26    27   ar
     9    27    19    1
    10    19    18    1
    11    18     1    1
    12     1     2    1
    13     2     6    1
    14     6     7   ar
    15     7     8   ar
    16     8     9   ar
    17     9    12    1
    18    12    13    1
    19    12    14    2
    20    12    15    2
    21     9    10   ar
    22    10    11   ar
    23     2     3    1
    24     3     4    1
    25     3     5    1
    26    27    21   ar
    27     3     1    1
    28    11     6   ar
    29    19    20    1
    30    13    16    1
    31    13    17    1
@<TRIPOS>MOLECULE
*****
 29 31 0 0 0
SMALL
GASTEIGER

@<TRIPOS>ATOM
      1 C          62.0523   87.7309   11.1922 C.3     1  UNL1        0.0239
      2 C          62.4953   89.1181   11.5521 C.3     1  UNL1        0.0240
      3 C          61.2441   88.9147   10.7503 C.3     1  UNL1        0.0057
      4 C          60.8191   90.3412   10.5645 C.3     1  UNL1        0.0004
      5 C          60.1403   88.2159   10.0131 C.3     1  UNL1        0.0004
      6 C          63.4735   90.0364   12.2229 C.ar    1  UNL1       -0.0224
      7 C          63.9470   89.7404   13.6151 C.ar    1  UNL1       -0.0029
      8 C          64.9251   90.6587   14.2857 C.ar    1  UNL1        0.0196
      9 C          65.4298   91.8731   13.5642 C.ar    1  UNL1        0.1217
     10 C          64.9564   92.1691   12.1721 C.ar    1  UNL1        0.0196
     11 C          63.9783   91.2508   11.5014 C.ar    1  UNL1       -0.0029
     12 S          66.4081   92.7914   14.2350 S.O2    1  UNL1        0.0572
     13 N          67.3862   93.7097   14.9057 N.3     1  UNL1       -0.2035
     14 O          67.2225   92.8432   12.9764 O.2     1  UNL1       -0.1532
     15 O          65.5936   92.7397   15.4935 O.2     1  UNL1       -0.1532
     16 H          68.1301   93.9510   14.2509 H       1  UNL1        0.1442
     17 H          67.7875   93.2434   15.7193 H       1  UNL1        0.1442
     18 C          62.2632   86.2466   11.2396 C.3     1  UNL1        0.0874
     19 N          62.8732   85.6141   12.4553 N.pl3   1  UNL1       -0.3302
     20 H          63.3634   86.1681   13.1049 H       1  UNL1        0.1469
     21 C          62.3669   83.6175   14.0388 C.ar    1  UNL1        0.1517
     22 C          62.2300   82.1410   14.2646 C.ar    1  UNL1        0.0390
     23 C          62.4625   81.1845   13.1328 C.ar    1  UNL1        0.0146
     24 C          62.8318   81.7044   11.7752 C.ar    1  UNL1        0.0591
     25 CL         63.0642   80.7479   10.6434 Cl      1  UNL1       -0.0822
     26 C          62.9687   83.1810   11.5494 C.ar    1  UNL1        0.0288
     27 C          62.7363   84.1375   12.6812 C.ar    1  UNL1        0.0799
     28 C          63.2996   85.1263   15.9372 C.3     1  UNL1        0.2525
     29 O          62.1345   84.5741   15.1706 O.3     1  UNL1       -0.4702
@<TRIPOS>BOND
     1    28    29    1
     2    29    21    1
     3    21    22   ar
     4    22    23   ar
     5    23    24   ar
     6    24    25    1
     7    24    26   ar
     8    26    27   ar
     9    27    19    1
    10    19    18    1
    11    18     1    1
    12     1     2    1
    13     2     6    1
    14     6     7   ar
    15     7     8   ar
    16     8     9   ar
    17     9    12    1
    18    12    13    1
    19    12    14    2
    20    12    15    2
    21     9    10   ar
    22    10    11   ar
    23     2     3    1
    24     3     4    1
    25     3     5    1
    26    27    21   ar
    27     3     1    1
    28    11     6   ar
    29    19    20    1
    30    13    16    1
    31    13    17    1
@<TRIPOS>MOLECULE
*****
 29 31 0 0 0
SMALL
GASTEIGER

@<TRIPOS>ATOM
      1 C          61.0377   88.9068    9.5172 C.3     1  UNL1        0.0239
      2 C          61.3054   87.4309    9.5158 C.3     1  UNL1        0.0240
      3 C          60.3155   88.0145    8.5518 C.3     1  UNL1        0.0057
      4 C          59.8851   86.7692    7.8347 C.3     1  UNL1        0.0004
      5 C          59.4749   89.0305    7.8367 C.3     1  UNL1        0.0004
      6 C          62.0316   86.2418   10.0717 C.ar    1  UNL1       -0.0224
      7 C          62.8711   85.3867    9.1696 C.ar    1  UNL1       -0.0029
      8 C          63.5972   84.1977    9.7254 C.ar    1  UNL1        0.0196
      9 C          63.4837   83.8638   11.1834 C.ar    1  UNL1        0.1217
     10 C          62.6442   84.7189   12.0855 C.ar    1  UNL1        0.0196
     11 C          61.9181   85.9080   11.5296 C.ar    1  UNL1       -0.0029
     12 S          64.2099   82.6747   11.7392 S.O2    1  UNL1        0.0572
     13 N          64.9360   81.4857   12.2950 N.3     1  UNL1       -0.2035
     14 O          63.6585   82.9748   13.1015 O.2     1  UNL1       -0.1532
     15 O          64.7613   82.3747   10.3769 O.2     1  UNL1       -0.1532
     16 H          64.7471   81.4086   13.2944 H       1  UNL1        0.1442
     17 H          65.9387   81.5996   12.1463 H       1  UNL1        0.1442
     18 C          61.3001   90.2741   10.0753 C.3     1  UNL1        0.0874
     19 N          61.6675   90.4364   11.5206 N.pl3   1  UNL1       -0.3302
     20 H          61.0226   90.1917   12.2230 H       1  UNL1        0.1469
     21 C          63.5592   90.7410   13.2753 C.ar    1  UNL1        0.1517
     22 C          64.9093   91.2762   13.6502 C.ar    1  UNL1        0.0390
     23 C          65.7180   92.0422   12.6455 C.ar    1  UNL1        0.0146
     24 C          65.1765   92.2729   11.2659 C.ar    1  UNL1        0.0591
     25 CL         65.9851   93.0388   10.2612 Cl      1  UNL1       -0.0822
     26 C          63.8264   91.7376   10.8909 C.ar    1  UNL1        0.0288
     27 C          63.0177   90.9717   11.8956 C.ar    1  UNL1        0.0799
     28 C          63.2813   89.7656   15.6672 C.3     1  UNL1        0.2525
     29 O          62.7506   89.9750   14.2800 O.3     1  UNL1       -0.4702
@<TRIPOS>BOND
     1    28    29    1
     2    29    21    1
     3    21    22   ar
     4    22    23   ar
     5    23    24   ar
     6    24    25    1
     7    24    26   ar
     8    26    27   ar
     9    27    19    1
    10    19    18    1
    11    18     1    1
    12     1     2    1
    13     2     6    1
    14     6     7   ar
    15     7     8   ar
    16     8     9   ar
    17     9    12    1
    18    12    13    1
    19    12    14    2
    20    12    15    2
    21     9    10   ar
    22    10    11   ar
    23     2     3    1
    24     3     4    1
    25     3     5    1
    26    27    21   ar
    27     3     1    1
    28    11     6   ar
    29    19    20    1
    30    13    16    1
    31    13    17    1
@<TRIPOS>MOLECULE
*****
 29 31 0 0 0
SMALL
GASTEIGER

@<TRIPOS>ATOM
      1 C          63.4247   84.5221   12.9033 C.3     1  UNL1        0.0239
      2 C          62.8719   84.7541   11.5283 C.3     1  UNL1        0.0240
      3 C          63.7643   83.5769   11.7891 C.3     1  UNL1        0.0057
      4 C          63.7980   82.9670   10.4191 C.3     1  UNL1        0.0004
      5 C          64.6449   82.6116   12.5258 C.3     1  UNL1        0.0004
      6 C          62.0376   85.5677   10.5838 C.ar    1  UNL1       -0.0224
      7 C          62.1591   85.3567    9.1037 C.ar    1  UNL1       -0.0029
      8 C          61.3247   86.1703    8.1592 C.ar    1  UNL1        0.0196
      9 C          60.3689   87.1948    8.6949 C.ar    1  UNL1        0.1217
     10 C          60.2475   87.4057   10.1750 C.ar    1  UNL1        0.0196
     11 C          61.0818   86.5921   11.1194 C.ar    1  UNL1       -0.0029
     12 S          59.5346   88.0083    7.7504 S.O2    1  UNL1        0.0572
     13 N          58.7002   88.8218    6.8059 N.3     1  UNL1       -0.2035
     14 O          60.1233   89.2673    8.3147 O.2     1  UNL1       -0.1532
     15 O          58.9459   86.7494    7.1861 O.2     1  UNL1       -0.1532
     16 H          58.8886   89.8134    6.9536 H       1  UNL1        0.1442
     17 H          57.7124   88.6342    6.9770 H       1  UNL1        0.1442
     18 C          63.5478   84.9339   14.3403 C.3     1  UNL1        0.0874
     19 N          64.5930   85.9294   14.7484 N.pl3   1  UNL1       -0.3302
     20 H          65.5414   85.6664   14.7706 H       1  UNL1        0.1469
     21 C          63.4350   87.5740   16.3930 C.ar    1  UNL1        0.1517
     22 C          63.0351   88.9704   16.7672 C.ar    1  UNL1        0.0390
     23 C          63.3932   90.1187   15.8711 C.ar    1  UNL1        0.0146
     24 C          64.1512   89.8706   14.6007 C.ar    1  UNL1        0.0591
     25 CL         64.5093   91.0190   13.7046 Cl      1  UNL1       -0.0822
     26 C          64.5511   88.4742   14.2265 C.ar    1  UNL1        0.0288
     27 C          64.1930   87.3259   15.1227 C.ar    1  UNL1        0.0799
     28 C          62.6699   86.6817   18.7100 C.3     1  UNL1        0.2525
     29 O          63.0769   86.4256   17.2892 O.3     1  UNL1       -0.4702
@<TRIPOS>BOND
     1    28    29    1
     2    29    21    1
     3    21    22   ar
     4    22    23   ar
     5    23    24   ar
     6    24    25    1
     7    24    26   ar
     8    26    27   ar
     9    27    19    1
    10    19    18    1
    11    18     1    1
    12     1     2    1
    13     2     6    1
    14     6     7   ar
    15     7     8   ar
    16     8     9   ar
    17     9    12    1
    18    12    13    1
    19    12    14    2
    20    12    15    2
    21     9    10   ar
    22    10    11   ar
    23     2     3    1
    24     3     4    1
    25     3     5    1
    26    27    21   ar
    27     3     1    1
    28    11     6   ar
    29    19    20    1
    30    13    16    1
    31    13    17    1
@<TRIPOS>MOLECULE
*****
 29 31 0 0 0
SMALL
GASTEIGER

@<TRIPOS>ATOM
      1 C          62.2969   88.2987   11.2083 C.3     1  UNL1        0.0239
      2 C          62.1881   86.8028   11.1884 C.3     1  UNL1        0.0240
      3 C          61.5595   87.6151   10.0952 C.3     1  UNL1        0.0057
      4 C          60.9692   86.5169    9.2612 C.3     1  UNL1        0.0004
      5 C          61.1360   88.8089    9.2917 C.3     1  UNL1        0.0004
      6 C          62.4881   85.4701   11.8081 C.ar    1  UNL1       -0.0224
      7 C          62.5350   85.3306   13.3008 C.ar    1  UNL1       -0.0029
      8 C          62.8350   83.9980   13.9204 C.ar    1  UNL1        0.0196
      9 C          63.0882   82.8048   13.0473 C.ar    1  UNL1        0.1217
     10 C          63.0413   82.9443   11.5546 C.ar    1  UNL1        0.0196
     11 C          62.7412   84.2770   10.9350 C.ar    1  UNL1       -0.0029
     12 S          63.3882   81.4721   13.6670 S.O2    1  UNL1        0.0572
     13 N          63.6883   80.1395   14.2867 N.3     1  UNL1       -0.2035
     14 O          63.0226   80.7918   12.3812 O.2     1  UNL1       -0.1532
     15 O          63.7539   82.1524   14.9529 O.2     1  UNL1       -0.1532
     16 H          63.5218   79.4013   13.6028 H       1  UNL1        0.1442
     17 H          63.0831   79.9966   15.0953 H       1  UNL1        0.1442
     18 C          62.7855   89.5571   11.8624 C.3     1  UNL1        0.0874
     19 N          62.9048   89.6284   13.3559 N.pl3   1  UNL1       -0.3302
     20 H          62.3358   89.0592   13.9230 H       1  UNL1        0.1469
     21 C          63.8633   90.8012   15.4668 C.ar    1  UNL1        0.1517
     22 C          64.8496   91.7397   16.0964 C.ar    1  UNL1        0.0390
     23 C          65.8637   92.4440   15.2446 C.ar    1  UNL1        0.0146
     24 C          65.8915   92.2098   13.7633 C.ar    1  UNL1        0.0591
     25 CL         66.9056   92.9141   12.9115 Cl      1  UNL1       -0.0822
     26 C          64.9052   91.2713   13.1337 C.ar    1  UNL1        0.0288
     27 C          63.8911   90.5670   13.9855 C.ar    1  UNL1        0.0799
     28 C          63.1233   88.7095   16.8186 C.3     1  UNL1        0.2525
     29 O          62.8492   90.0969   16.3186 O.3     1  UNL1       -0.4702
@<TRIPOS>BOND
     1    28    29    1
     2    29    21    1
     3    21    22   ar
     4    22    23   ar
     5    23    24   ar
     6    24    25    1
     7    24    26   ar
     8    26    27   ar
     9    27    19    1
    10    19    18    1
    11    18     1    1
    12     1     2    1
    13     2     6    1
    14     6     7   ar
    15     7     8   ar
    16     8     9   ar
    17     9    12    1
    18    12    13    1
    19    12    14    2
    20    12    15    2
    21     9    10   ar
    22    10    11   ar
    23     2     3    1
    24     3     4    1
    25     3     5    1
    26    27    21   ar
    27     3     1    1
    28    11     6   ar
    29    19    20    1
    30    13    16    1
    31    13    17    1
@<TRIPOS>MOLECULE
*****
 29 31 0 0 0
SMALL
GASTEIGER

@<TRIPOS>ATOM
      1 C          63.8830   86.2254   13.7285 C.3     1  UNL1        0.0239
      2 C          63.0252   85.8732   12.5495 C.3     1  UNL1        0.0240
      3 C          63.6401   84.7866   13.3809 C.3     1  UNL1        0.0057
      4 C          63.1211   83.5796   12.6572 C.3     1  UNL1        0.0004
      5 C          64.4353   84.1192   14.4637 C.3     1  UNL1        0.0004
      6 C          62.1749   86.2971   11.3888 C.ar    1  UNL1       -0.0224
      7 C          61.0068   87.2119   11.6093 C.ar    1  UNL1       -0.0029
      8 C          60.1565   87.6358   10.4486 C.ar    1  UNL1        0.0196
      9 C          60.4744   87.1449    9.0673 C.ar    1  UNL1        0.1217
     10 C          61.6424   86.2301    8.8467 C.ar    1  UNL1        0.0196
     11 C          62.4927   85.8062   10.0075 C.ar    1  UNL1       -0.0029
     12 S          59.6240   87.5689    7.9066 S.O2    1  UNL1        0.0572
     13 N          58.7737   87.9928    6.7459 N.3     1  UNL1       -0.2035
     14 O          59.4737   86.1349    7.4929 O.2     1  UNL1       -0.1532
     15 O          59.7744   89.0028    8.3202 O.2     1  UNL1       -0.1532
     16 H          58.4846   87.1696    6.2176 H       1  UNL1        0.1442
     17 H          59.3102   88.6142    6.1405 H       1  UNL1        0.1442
     18 C          64.5185   87.2594   14.6099 C.3     1  UNL1        0.0874
     19 N          63.8757   88.6051   14.7710 N.pl3   1  UNL1       -0.3302
     20 H          63.3783   88.8178   15.5936 H       1  UNL1        0.1469
     21 C          64.9525   90.7693   13.8186 C.ar    1  UNL1        0.1517
     22 C          65.0674   91.7909   12.7264 C.ar    1  UNL1        0.0390
     23 C          64.2204   91.6701   11.4943 C.ar    1  UNL1        0.0146
     24 C          63.2586   90.5276   11.3544 C.ar    1  UNL1        0.0591
     25 CL         62.4117   90.4068   10.1223 Cl      1  UNL1       -0.0822
     26 C          63.1437   89.5060   12.4466 C.ar    1  UNL1        0.0288
     27 C          63.9906   89.6268   13.6788 C.ar    1  UNL1        0.0799
     28 C          67.1231   91.5926   14.9851 C.3     1  UNL1        0.2525
     29 O          65.7994   90.8901   15.0507 O.3     1  UNL1       -0.4702
@<TRIPOS>BOND
     1    28    29    1
     2    29    21    1
     3    21    22   ar
     4    22    23   ar
     5    23    24   ar
     6    24    25    1
     7    24    26   ar
     8    26    27   ar
     9    27    19    1
    10    19    18    1
    11    18     1    1
    12     1     2    1
    13     2     6    1
    14     6     7   ar
    15     7     8   ar
    16     8     9   ar
    17     9    12    1
    18    12    13    1
    19    12    14    2
    20    12    15    2
    21     9    10   ar
    22    10    11   ar
    23     2     3    1
    24     3     4    1
    25     3     5    1
    26    27    21   ar
    27     3     1    1
    28    11     6   ar
    29    19    20    1
    30    13    16    1
    31    13    17    1
@<TRIPOS>MOLECULE
*****
 29 31 0 0 0
SMALL
GASTEIGER

@<TRIPOS>ATOM
      1 C          61.6528   87.9271   11.1484 C.3     1  UNL1        0.0239
      2 C          62.1882   89.2723   11.5405 C.3     1  UNL1        0.0240
      3 C          60.8416   89.1618   10.8891 C.3     1  UNL1        0.0057
      4 C          60.4509   90.6096   10.8515 C.3     1  UNL1        0.0004
      5 C          59.6306   88.5485   10.2508 C.3     1  UNL1        0.0004
      6 C          63.2749   90.1128   12.1430 C.ar    1  UNL1       -0.0224
      7 C          63.8591   91.2540   11.3644 C.ar    1  UNL1       -0.0029
      8 C          64.9457   92.0945   11.9669 C.ar    1  UNL1        0.0196
      9 C          65.4480   91.7937   13.3479 C.ar    1  UNL1        0.1217
     10 C          64.8637   90.6524   14.1264 C.ar    1  UNL1        0.0196
     11 C          63.7772   89.8120   13.5240 C.ar    1  UNL1       -0.0029
     12 S          66.5346   92.6342   13.9504 S.O2    1  UNL1        0.0572
     13 N          67.6212   93.4746   14.5527 N.3     1  UNL1       -0.2035
     14 O          65.7447   92.7449   15.2207 O.2     1  UNL1       -0.1532
     15 O          67.3245   92.5234   12.6800 O.2     1  UNL1       -0.1532
     16 H          67.3611   93.7361   15.5037 H       1  UNL1        0.1442
     17 H          67.7502   94.3167   13.9918 H       1  UNL1        0.1442
     18 C          61.8121   86.4376   11.0718 C.3     1  UNL1        0.0874
     19 N          62.7767   85.7385   11.9834 N.pl3   1  UNL1       -0.3302
     20 H          63.3521   86.2625   12.5863 H       1  UNL1        0.1469
     21 C          63.4642   83.5305   10.7992 C.ar    1  UNL1        0.1517
     22 C          63.5520   82.0331   10.7921 C.ar    1  UNL1        0.0390
     23 C          63.0401   81.2463   11.9621 C.ar    1  UNL1        0.0146
     24 C          62.4404   81.9568   13.1391 C.ar    1  UNL1        0.0591
     25 CL         61.9285   81.1700   14.3091 Cl      1  UNL1       -0.0822
     26 C          62.3526   83.4542   13.1462 C.ar    1  UNL1        0.0288
     27 C          62.8645   84.2411   11.9762 C.ar    1  UNL1        0.0799
     28 C          63.0672   84.6236    8.4760 C.3     1  UNL1        0.2525
     29 O          63.9761   84.3174    9.6292 O.3     1  UNL1       -0.4702
@<TRIPOS>BOND
     1    28    29    1
     2    29    21    1
     3    21    22   ar
     4    22    23   ar
     5    23    24   ar
     6    24    25    1
     7    24    26   ar
     8    26    27   ar
     9    27    19    1
    10    19    18    1
    11    18     1    1
    12     1     2    1
    13     2     6    1
    14     6     7   ar
    15     7     8   ar
    16     8     9   ar
    17     9    12    1
    18    12    13    1
    19    12    14    2
    20    12    15    2
    21     9    10   ar
    22    10    11   ar
    23     2     3    1
    24     3     4    1
    25     3     5    1
    26    27    21   ar
    27     3     1    1
    28    11     6   ar
    29    19    20    1
    30    13    16    1
    31    13    17    1
@<TRIPOS>MOLECULE
*****
 29 31 0 0 0
SMALL
GASTEIGER

@<TRIPOS>ATOM
      1 C          63.8839   84.1121   12.6969 C.3     1  UNL1        0.0239
      2 C          63.1325   84.3265   11.4165 C.3     1  UNL1        0.0240
      3 C          63.8428   83.0281   11.6609 C.3     1  UNL1        0.0057
      4 C          63.5155   82.3082   10.3863 C.3     1  UNL1        0.0004
      5 C          64.6667   81.9798   12.3481 C.3     1  UNL1        0.0004
      6 C          62.2886   85.1999   10.5360 C.ar    1  UNL1       -0.0224
      7 C          62.4455   85.1371    9.0456 C.ar    1  UNL1       -0.0029
      8 C          61.6016   86.0105    8.1652 C.ar    1  UNL1        0.0196
      9 C          60.6009   86.9466    8.7753 C.ar    1  UNL1        0.1217
     10 C          60.4440   87.0094   10.2657 C.ar    1  UNL1        0.0196
     11 C          61.2879   86.1360   11.1461 C.ar    1  UNL1       -0.0029
     12 S          59.7570   87.8200    7.8949 S.O2    1  UNL1        0.0572
     13 N          58.9132   88.6934    7.0145 N.3     1  UNL1       -0.2035
     14 O          59.1570   86.6005    7.2602 O.2     1  UNL1       -0.1532
     15 O          60.3570   89.0394    8.5295 O.2     1  UNL1       -0.1532
     16 H          58.3372   88.1095    6.4080 H       1  UNL1        0.1442
     17 H          59.5168   89.2849    6.4435 H       1  UNL1        0.1442
     18 C          64.3415   84.6142   14.0342 C.3     1  UNL1        0.0874
     19 N          64.8137   86.0302   14.1822 N.pl3   1  UNL1       -0.3302
     20 H          65.5521   86.3638   13.6230 H       1  UNL1        0.1469
     21 C          63.9583   88.3884   14.8584 C.ar    1  UNL1        0.1517
     22 C          63.3055   89.2960   15.8584 C.ar    1  UNL1        0.0390
     23 C          62.8553   88.7531   17.1823 C.ar    1  UNL1        0.0146
     24 C          63.0578   87.3026   17.5061 C.ar    1  UNL1        0.0591
     25 CL         62.6076   86.7597   18.8299 Cl      1  UNL1       -0.0822
     26 C          63.7106   86.3950   16.5061 C.ar    1  UNL1        0.0288
     27 C          64.1609   86.9379   15.1823 C.ar    1  UNL1        0.0799
     28 C          63.3976   89.2669   12.4786 C.3     1  UNL1        0.2525
     29 O          64.4086   88.9313   13.5346 O.3     1  UNL1       -0.4702
@<TRIPOS>BOND
     1    28    29    1
     2    29    21    1
     3    21    22   ar
     4    22    23   ar
     5    23    24   ar
     6    24    25    1
     7    24    26   ar
     8    26    27   ar
     9    27    19    1
    10    19    18    1
    11    18     1    1
    12     1     2    1
    13     2     6    1
    14     6     7   ar
    15     7     8   ar
    16     8     9   ar
    17     9    12    1
    18    12    13    1
    19    12    14    2
    20    12    15    2
    21     9    10   ar
    22    10    11   ar
    23     2     3    1
    24     3     4    1
    25     3     5    1
    26    27    21   ar
    27     3     1    1
    28    11     6   ar
    29    19    20    1
    30    13    16    1
    31    13    17    1
@<TRIPOS>MOLECULE
*****
 29 31 0 0 0
SMALL
GASTEIGER

@<TRIPOS>ATOM
      1 C          63.0707   84.3839   11.0333 C.3     1  UNL1        0.0239
      2 C          63.1789   85.2423   12.2586 C.3     1  UNL1        0.0240
      3 C          62.8031   83.7958   12.3870 C.3     1  UNL1        0.0057
      4 C          62.6471   83.6983   13.8757 C.3     1  UNL1        0.0004
      5 C          62.4814   82.3832   11.9983 C.3     1  UNL1        0.0004
      6 C          63.4583   86.5730   12.8920 C.ar    1  UNL1       -0.0224
      7 C          63.0602   87.8367   12.1889 C.ar    1  UNL1       -0.0029
      8 C          63.3396   89.1674   12.8223 C.ar    1  UNL1        0.0196
      9 C          64.0173   89.2343   14.1589 C.ar    1  UNL1        0.1217
     10 C          64.4154   87.9706   14.8620 C.ar    1  UNL1        0.0196
     11 C          64.1360   86.6399   14.2286 C.ar    1  UNL1       -0.0029
     12 S          64.2967   90.5650   14.7923 S.O2    1  UNL1        0.0572
     13 N          64.5762   91.8957   15.4256 N.3     1  UNL1       -0.2035
     14 O          63.2548   90.2875   15.8350 O.2     1  UNL1       -0.1532
     15 O          65.3386   90.8425   13.7496 O.2     1  UNL1       -0.1532
     16 H          63.9715   92.0194   16.2377 H       1  UNL1        0.1442
     17 H          64.3949   92.6384   14.7504 H       1  UNL1        0.1442
     18 C          63.1628   84.2279    9.5443 C.3     1  UNL1        0.0874
     19 N          63.1047   85.4370    8.6585 N.pl3   1  UNL1       -0.3302
     20 H          63.9041   85.7196    8.1582 H       1  UNL1        0.1469
     21 C          60.7470   85.7408    7.6102 C.ar    1  UNL1        0.1517
     22 C          59.4708   86.5193    7.4866 C.ar    1  UNL1        0.0390
     23 C          59.2762   87.7725    8.2876 C.ar    1  UNL1        0.0146
     24 C          60.3577   88.2472    9.2122 C.ar    1  UNL1        0.0591
     25 CL         60.1630   89.5004   10.0133 Cl      1  UNL1       -0.0822
     26 C          61.6338   87.4687    9.3359 C.ar    1  UNL1        0.0288
     27 C          61.8285   86.2155    8.5348 C.ar    1  UNL1        0.0799
     28 C          61.9434   84.4589    5.6931 C.3     1  UNL1        0.2525
     29 O          60.9416   84.4877    6.8091 O.3     1  UNL1       -0.4702
@<TRIPOS>BOND
     1    28    29    1
     2    29    21    1
     3    21    22   ar
     4    22    23   ar
     5    23    24   ar
     6    24    25    1
     7    24    26   ar
     8    26    27   ar
     9    27    19    1
    10    19    18    1
    11    18     1    1
    12     1     2    1
    13     2     6    1
    14     6     7   ar
    15     7     8   ar
    16     8     9   ar
    17     9    12    1
    18    12    13    1
    19    12    14    2
    20    12    15    2
    21     9    10   ar
    22    10    11   ar
    23     2     3    1
    24     3     4    1
    25     3     5    1
    26    27    21   ar
    27     3     1    1
    28    11     6   ar
    29    19    20    1
    30    13    16    1
    31    13    17    1
