@<TRIPOS>MOLECULE
*****
 23 25 0 0 0
SMALL
GASTEIGER

@<TRIPOS>ATOM
      1 N          63.8808   86.0467   15.6356 N.ar    1  UNL1       -0.3165
      2 C          63.1246   85.6591   16.8718 C.ar    1  UNL1        0.0779
      3 C          62.6664   86.9171   17.5482 C.ar    1  UNL1        0.0392
      4 C          63.1392   88.0820   16.7302 C.ar    1  UNL1        0.0985
      5 N          62.9834   89.5631   16.9089 N.ar    1  UNL1       -0.2423
      6 C          63.5781   90.5063   15.9056 C.ar    1  UNL1        0.0989
      7 C          64.3286   89.9684   14.7236 C.ar    1  UNL1        0.0207
      8 C          64.4845   88.4873   14.5448 C.ar    1  UNL1        0.0203
      9 C          63.8898   87.5441   15.5481 C.ar    1  UNL1        0.0782
     10 C          64.9233   90.9117   13.7202 C.ar    1  UNL1        0.0039
     11 C          66.2243   91.5977   14.0149 C.ar    1  UNL1        0.0025
     12 C          66.8190   92.5409   13.0116 C.ar    1  UNL1        0.0320
     13 C          66.1127   92.7982   11.7135 C.ar    1  UNL1        0.1674
     14 F          66.7073   93.7414   10.7102 F       1  UNL1       -0.2018
     15 C          64.8117   92.1122   11.4188 C.ar    1  UNL1        0.1674
     16 F          64.1053   92.3694   10.1208 F       1  UNL1       -0.2018
     17 C          64.2170   91.1689   12.4222 C.ar    1  UNL1        0.0320
     18 C          64.5163   85.1026   14.6585 C.3     1  UNL1        0.1920
     19 C          62.4253   82.2734   12.8219 C.3     1  UNL1        0.1150
     20 N          63.0690   83.5965   13.1135 N.am    1  UNL1       -0.2744
     21 C          62.9092   84.7365   12.1518 C.3     1  UNL1        0.1150
     22 C          63.8726   83.7795   14.3668 C.2     1  UNL1        0.2488
     23 O          64.0324   82.6394   15.3284 O.2     1  UNL1       -0.2728
@<TRIPOS>BOND
     1    19    20    1
     2    20    21    1
     3    20    22   am
     4    22    23    2
     5    22    18    1
     6    18     1    1
     7     1     2   ar
     8     2     3   ar
     9     3     4   ar
    10     4     5   ar
    11     5     6   ar
    12     6     7   ar
    13     7    10    1
    14    10    11   ar
    15    11    12   ar
    16    12    13   ar
    17    13    14    1
    18    13    15   ar
    19    15    16    1
    20    15    17   ar
    21     7     8   ar
    22     8     9   ar
    23     9     1   ar
    24     9     4   ar
    25    17    10   ar
@<TRIPOS>MOLECULE
*****
 23 25 0 0 0
SMALL
GASTEIGER

@<TRIPOS>ATOM
      1 N          66.0487   93.1215   13.0378 N.ar    1  UNL1       -0.3165
      2 C          66.8990   93.0372   14.2706 C.ar    1  UNL1        0.0779
      3 C          66.5513   91.7664   14.9875 C.ar    1  UNL1        0.0392
      4 C          65.4861   91.0652   14.1978 C.ar    1  UNL1        0.0985
      5 N          64.7588   89.7723   14.4203 N.ar    1  UNL1       -0.2423
      6 C          63.7210   89.3169   13.4378 C.ar    1  UNL1        0.0989
      7 C          63.4104   90.1544   12.2327 C.ar    1  UNL1        0.0207
      8 C          64.1376   91.4473   12.0102 C.ar    1  UNL1        0.0203
      9 C          65.1755   91.9027   12.9928 C.ar    1  UNL1        0.0782
     10 C          62.3724   89.6990   11.2501 C.ar    1  UNL1        0.0039
     11 C          61.1460   90.5300   11.0155 C.ar    1  UNL1        0.0025
     12 C          60.1081   90.0746   10.0329 C.ar    1  UNL1        0.0320
     13 C          60.2967   88.7881    9.2850 C.ar    1  UNL1        0.1674
     14 F          59.2589   88.3326    8.3025 F       1  UNL1       -0.2018
     15 C          61.5232   87.9570    9.5197 C.ar    1  UNL1        0.1674
     16 F          61.7119   86.6705    8.7719 F       1  UNL1       -0.2018
     17 C          62.5611   88.4125   10.5023 C.ar    1  UNL1        0.0320
     18 C          66.0682   94.2299   12.0273 C.3     1  UNL1        0.1920
     19 C          67.3605   94.8715    8.3302 C.3     1  UNL1        0.1150
     20 N          66.6294   95.0522    9.6275 N.am    1  UNL1       -0.2744
     21 C          65.7285   96.2355    9.8223 C.3     1  UNL1        0.1150
     22 C          66.7993   94.0493   10.7300 C.2     1  UNL1        0.2488
     23 O          67.7002   92.8660   10.5352 O.2     1  UNL1       -0.2728
@<TRIPOS>BOND
     1    19    20    1
     2    20    21    1
     3    20    22   am
     4    22    23    2
     5    22    18    1
     6    18     1    1
     7     1     2   ar
     8     2     3   ar
     9     3     4   ar
    10     4     5   ar
    11     5     6   ar
    12     6     7   ar
    13     7    10    1
    14    10    11   ar
    15    11    12   ar
    16    12    13   ar
    17    13    14    1
    18    13    15   ar
    19    15    16    1
    20    15    17   ar
    21     7     8   ar
    22     8     9   ar
    23     9     1   ar
    24     9     4   ar
    25    17    10   ar
@<TRIPOS>MOLECULE
*****
 23 25 0 0 0
SMALL
GASTEIGER

@<TRIPOS>ATOM
      1 N          64.4324   89.3525   14.0903 N.ar    1  UNL1       -0.3165
      2 C          65.1848   90.5782   14.5163 C.ar    1  UNL1        0.0779
      3 C          64.9678   91.6393   13.4786 C.ar    1  UNL1        0.0392
      4 C          64.0813   91.0694   12.4111 C.ar    1  UNL1        0.0985
      5 N          63.5327   91.6548   11.1438 N.ar    1  UNL1       -0.2423
      6 C          62.6532   90.8269   10.2545 C.ar    1  UNL1        0.0989
      7 C          62.3223   89.4135   10.6325 C.ar    1  UNL1        0.0207
      8 C          62.8709   88.8281   11.8999 C.ar    1  UNL1        0.0203
      9 C          63.7504   89.6560   12.7892 C.ar    1  UNL1        0.0782
     10 C          61.4427   88.5856    9.7431 C.ar    1  UNL1        0.0039
     11 C          61.5390   87.0891    9.7761 C.ar    1  UNL1        0.0025
     12 C          60.6594   86.2611    8.8867 C.ar    1  UNL1        0.0320
     13 C          59.6836   86.9298    7.9644 C.ar    1  UNL1        0.1674
     14 F          58.8041   86.1019    7.0750 F       1  UNL1       -0.2018
     15 C          59.5874   88.4264    7.9315 C.ar    1  UNL1        0.1674
     16 F          58.6115   89.0950    7.0092 F       1  UNL1       -0.2018
     17 C          60.4669   89.2542    8.8208 C.ar    1  UNL1        0.0320
     18 C          64.3725   88.0515   14.8346 C.3     1  UNL1        0.1920
     19 C          62.5358   86.5173   18.0004 C.3     1  UNL1        0.1150
     20 N          63.3088   86.6130   16.7186 N.am    1  UNL1       -0.2744
     21 C          63.7913   85.3660   16.0388 C.3     1  UNL1        0.1150
     22 C          63.5994   87.9558   16.1165 C.2     1  UNL1        0.2488
     23 O          63.1169   89.2028   16.7963 O.2     1  UNL1       -0.2728
@<TRIPOS>BOND
     1    19    20    1
     2    20    21    1
     3    20    22   am
     4    22    23    2
     5    22    18    1
     6    18     1    1
     7     1     2   ar
     8     2     3   ar
     9     3     4   ar
    10     4     5   ar
    11     5     6   ar
    12     6     7   ar
    13     7    10    1
    14    10    11   ar
    15    11    12   ar
    16    12    13   ar
    17    13    14    1
    18    13    15   ar
    19    15    16    1
    20    15    17   ar
    21     7     8   ar
    22     8     9   ar
    23     9     1   ar
    24     9     4   ar
    25    17    10   ar
@<TRIPOS>MOLECULE
*****
 23 25 0 0 0
SMALL
GASTEIGER

@<TRIPOS>ATOM
      1 N          64.1447   88.1024   14.2581 N.ar    1  UNL1       -0.3165
      2 C          64.2754   89.4099   14.9815 C.ar    1  UNL1        0.0779
      3 C          63.6521   90.4754   14.1292 C.ar    1  UNL1        0.0392
      4 C          63.1363   89.8263   12.8792 C.ar    1  UNL1        0.0985
      5 N          62.4286   90.3813   11.6787 N.ar    1  UNL1       -0.2423
      6 C          62.0254   89.4697   10.5579 C.ar    1  UNL1        0.0989
      7 C          62.3299   88.0031   10.6375 C.ar    1  UNL1        0.0207
      8 C          63.0375   87.4481   11.8380 C.ar    1  UNL1        0.0203
      9 C          63.4407   88.3597   12.9588 C.ar    1  UNL1        0.0782
     10 C          61.9267   87.0914    9.5166 C.ar    1  UNL1        0.0039
     11 C          62.9149   86.1145    8.9520 C.ar    1  UNL1        0.0025
     12 C          62.5117   85.2028    7.8310 C.ar    1  UNL1        0.0320
     13 C          61.1202   85.2682    7.2748 C.ar    1  UNL1        0.1674
     14 F          60.7170   84.3566    6.1540 F       1  UNL1       -0.2018
     15 C          60.1319   86.2452    7.8395 C.ar    1  UNL1        0.1674
     16 F          58.7404   86.3106    7.2833 F       1  UNL1       -0.2018
     17 C          60.5352   87.1568    8.9604 C.ar    1  UNL1        0.0320
     18 C          64.6325   86.7712   14.7480 C.3     1  UNL1        0.1920
     19 C          62.5340   83.4203   15.0918 C.3     1  UNL1        0.1150
     20 N          63.5120   84.4335   14.5751 N.am    1  UNL1       -0.2744
     21 C          64.3474   84.1223   13.3688 C.3     1  UNL1        0.1150
     22 C          63.6545   85.7579   15.2647 C.2     1  UNL1        0.2488
     23 O          62.8191   86.0691   16.4710 O.2     1  UNL1       -0.2728
@<TRIPOS>BOND
     1    19    20    1
     2    20    21    1
     3    20    22   am
     4    22    23    2
     5    22    18    1
     6    18     1    1
     7     1     2   ar
     8     2     3   ar
     9     3     4   ar
    10     4     5   ar
    11     5     6   ar
    12     6     7   ar
    13     7    10    1
    14    10    11   ar
    15    11    12   ar
    16    12    13   ar
    17    13    14    1
    18    13    15   ar
    19    15    16    1
    20    15    17   ar
    21     7     8   ar
    22     8     9   ar
    23     9     1   ar
    24     9     4   ar
    25    17    10   ar
@<TRIPOS>MOLECULE
*****
 23 25 0 0 0
SMALL
GASTEIGER

@<TRIPOS>ATOM
      1 N          63.1157   90.2590   13.2787 N.ar    1  UNL1       -0.3165
      2 C          63.0454   89.7211   14.6772 C.ar    1  UNL1        0.0779
      3 C          64.0771   90.4339   15.5003 C.ar    1  UNL1        0.0392
      4 C          64.7850   91.4123   14.6106 C.ar    1  UNL1        0.0985
      5 N          65.8939   92.3876   14.8732 N.ar    1  UNL1       -0.2423
      6 C          66.4086   93.2549   13.7629 C.ar    1  UNL1        0.0989
      7 C          65.8144   93.1468   12.3898 C.ar    1  UNL1        0.0207
      8 C          64.7055   92.1714   12.1272 C.ar    1  UNL1        0.0203
      9 C          64.1908   91.3042   13.2375 C.ar    1  UNL1        0.0782
     10 C          66.3291   94.0141   11.2795 C.ar    1  UNL1        0.0039
     11 C          66.1852   95.5048   11.3639 C.ar    1  UNL1        0.0025
     12 C          66.6999   96.3721   10.2535 C.ar    1  UNL1        0.0320
     13 C          67.3586   95.7487    9.0587 C.ar    1  UNL1        0.1674
     14 F          67.8733   96.6159    7.9484 F       1  UNL1       -0.2018
     15 C          67.5026   94.2579    8.9744 C.ar    1  UNL1        0.1674
     16 F          68.1612   93.6345    7.7796 F       1  UNL1       -0.2018
     17 C          66.9878   93.3907   10.0847 C.ar    1  UNL1        0.0320
     18 C          62.2610   89.8274   12.1241 C.3     1  UNL1        0.1920
     19 C          62.0042   86.7638    9.6145 C.3     1  UNL1        0.1150
     20 N          61.8401   88.1361   10.1972 N.am    1  UNL1       -0.2744
     21 C          61.0912   89.1896    9.4361 C.3     1  UNL1        0.1150
     22 C          62.4250   88.4550   11.5412 C.2     1  UNL1        0.2488
     23 O          63.1739   87.4015   12.3023 O.2     1  UNL1       -0.2728
@<TRIPOS>BOND
     1    19    20    1
     2    20    21    1
     3    20    22   am
     4    22    23    2
     5    22    18    1
     6    18     1    1
     7     1     2   ar
     8     2     3   ar
     9     3     4   ar
    10     4     5   ar
    11     5     6   ar
    12     6     7   ar
    13     7    10    1
    14    10    11   ar
    15    11    12   ar
    16    12    13   ar
    17    13    14    1
    18    13    15   ar
    19    15    16    1
    20    15    17   ar
    21     7     8   ar
    22     8     9   ar
    23     9     1   ar
    24     9     4   ar
    25    17    10   ar
@<TRIPOS>MOLECULE
*****
 23 25 0 0 0
SMALL
GASTEIGER

@<TRIPOS>ATOM
      1 N          61.5926   86.3889    9.5832 N.ar    1  UNL1       -0.3165
      2 C          60.3603   86.3636    8.7283 C.ar    1  UNL1        0.0779
      3 C          59.7399   87.7287    8.7691 C.ar    1  UNL1        0.0392
      4 C          60.5887   88.5976    9.6491 C.ar    1  UNL1        0.0985
      5 N          60.4669   90.0358   10.0573 N.ar    1  UNL1       -0.2423
      6 C          61.4901   90.6460   10.9687 C.ar    1  UNL1        0.0989
      7 C          62.6352   89.8179   11.4718 C.ar    1  UNL1        0.0207
      8 C          62.7570   88.3797   11.0636 C.ar    1  UNL1        0.0203
      9 C          61.7338   87.7696   10.1523 C.ar    1  UNL1        0.0782
     10 C          63.6585   90.4282   12.3832 C.ar    1  UNL1        0.0039
     11 C          63.9645   89.7862   13.7039 C.ar    1  UNL1        0.0025
     12 C          64.9878   90.3965   14.6153 C.ar    1  UNL1        0.0320
     13 C          65.7050   91.6487   14.2059 C.ar    1  UNL1        0.1674
     14 F          66.7283   92.2589   15.1172 F       1  UNL1       -0.2018
     15 C          65.3990   92.2906   12.8852 C.ar    1  UNL1        0.1674
     16 F          66.1162   93.5428   12.4758 F       1  UNL1       -0.2018
     17 C          64.3757   91.6804   11.9739 C.ar    1  UNL1        0.0320
     18 C          62.5208   85.2359    9.8263 C.3     1  UNL1        0.1920
     19 C          63.7007   82.9179   12.8237 C.3     1  UNL1        0.1150
     20 N          63.5433   83.4750   11.4400 N.am    1  UNL1       -0.2744
     21 C          64.2510   82.8286   10.2862 C.3     1  UNL1        0.1150
     22 C          62.6783   84.6787   11.2101 C.2     1  UNL1        0.2488
     23 O          61.9706   85.3251   12.3639 O.2     1  UNL1       -0.2728
@<TRIPOS>BOND
     1    19    20    1
     2    20    21    1
     3    20    22   am
     4    22    23    2
     5    22    18    1
     6    18     1    1
     7     1     2   ar
     8     2     3   ar
     9     3     4   ar
    10     4     5   ar
    11     5     6   ar
    12     6     7   ar
    13     7    10    1
    14    10    11   ar
    15    11    12   ar
    16    12    13   ar
    17    13    14    1
    18    13    15   ar
    19    15    16    1
    20    15    17   ar
    21     7     8   ar
    22     8     9   ar
    23     9     1   ar
    24     9     4   ar
    25    17    10   ar
@<TRIPOS>MOLECULE
*****
 23 25 0 0 0
SMALL
GASTEIGER

@<TRIPOS>ATOM
      1 N          62.9377   89.8875   11.6523 N.ar    1  UNL1       -0.3165
      2 C          62.1797   90.7722   10.7075 C.ar    1  UNL1        0.0779
      3 C          61.3039   89.9000    9.8576 C.ar    1  UNL1        0.0392
      4 C          61.5207   88.4763   10.2771 C.ar    1  UNL1        0.0985
      5 N          60.9291   87.1859    9.7924 N.ar    1  UNL1       -0.2423
      6 C          61.3473   85.8879   10.4169 C.ar    1  UNL1        0.0989
      7 C          62.3570   85.8801   11.5261 C.ar    1  UNL1        0.0207
      8 C          62.9486   87.1704   12.0108 C.ar    1  UNL1        0.0203
      9 C          62.5305   88.4685   11.3863 C.ar    1  UNL1        0.0782
     10 C          62.7752   84.5819   12.1506 C.ar    1  UNL1        0.0039
     11 C          63.3116   84.5618   13.5512 C.ar    1  UNL1        0.0025
     12 C          63.7298   83.2637   14.1757 C.ar    1  UNL1        0.0320
     13 C          63.6114   81.9856   13.3996 C.ar    1  UNL1        0.1674
     14 F          64.0295   80.6874   14.0240 F       1  UNL1       -0.2018
     15 C          63.0749   82.0056   11.9989 C.ar    1  UNL1        0.1674
     16 F          62.9565   80.7275   11.2227 F       1  UNL1       -0.2018
     17 C          62.6568   83.3038   11.3745 C.ar    1  UNL1        0.0320
     18 C          63.9290   90.3419   12.6823 C.3     1  UNL1        0.1920
     19 C          63.9862   91.2715   16.5401 C.3     1  UNL1        0.1150
     20 N          64.3931   91.1731   15.0998 N.am    1  UNL1       -0.2744
     21 C          65.6710   91.8073   14.6364 C.3     1  UNL1        0.1150
     22 C          63.5221   90.4403   14.1228 C.2     1  UNL1        0.2488
     23 O          62.2442   89.8061   14.5862 O.2     1  UNL1       -0.2728
@<TRIPOS>BOND
     1    19    20    1
     2    20    21    1
     3    20    22   am
     4    22    23    2
     5    22    18    1
     6    18     1    1
     7     1     2   ar
     8     2     3   ar
     9     3     4   ar
    10     4     5   ar
    11     5     6   ar
    12     6     7   ar
    13     7    10    1
    14    10    11   ar
    15    11    12   ar
    16    12    13   ar
    17    13    14    1
    18    13    15   ar
    19    15    16    1
    20    15    17   ar
    21     7     8   ar
    22     8     9   ar
    23     9     1   ar
    24     9     4   ar
    25    17    10   ar
@<TRIPOS>MOLECULE
*****
 23 25 0 0 0
SMALL
GASTEIGER

@<TRIPOS>ATOM
      1 N          62.8849   89.9283   11.5948 N.ar    1  UNL1       -0.3165
      2 C          62.1118   90.8213   10.6701 C.ar    1  UNL1        0.0779
      3 C          61.2287   89.9559    9.8209 C.ar    1  UNL1        0.0392
      4 C          61.4560   88.5281   10.2207 C.ar    1  UNL1        0.0985
      5 N          60.8632   87.2413    9.7280 N.ar    1  UNL1       -0.2423
      6 C          61.2940   85.9375   10.3317 C.ar    1  UNL1        0.0989
      7 C          62.3176   85.9205   11.4281 C.ar    1  UNL1        0.0207
      8 C          62.9104   87.2073   11.9207 C.ar    1  UNL1        0.0203
      9 C          62.4796   88.5111   11.3170 C.ar    1  UNL1        0.0782
     10 C          62.7483   84.6166   12.0318 C.ar    1  UNL1        0.0039
     11 C          63.2535   83.5128   11.1507 C.ar    1  UNL1        0.0025
     12 C          63.6843   82.2089   11.7544 C.ar    1  UNL1        0.0320
     13 C          63.6099   82.0089   13.2392 C.ar    1  UNL1        0.1674
     14 F          64.0406   80.7051   13.8429 F       1  UNL1       -0.2018
     15 C          63.1047   83.1129   14.1202 C.ar    1  UNL1        0.1674
     16 F          63.0302   82.9129   15.6050 F       1  UNL1       -0.2018
     17 C          62.6739   84.4167   13.5165 C.ar    1  UNL1        0.0320
     18 C          63.8873   90.3743   12.6176 C.3     1  UNL1        0.1920
     19 C          63.9954   91.2478   16.4875 C.3     1  UNL1        0.1150
     20 N          64.3847   91.1680   15.0411 N.am    1  UNL1       -0.2744
     21 C          65.6604   91.8021   14.5716 C.3     1  UNL1        0.1150
     22 C          63.4981   90.4541   14.0642 C.2     1  UNL1        0.2488
     23 O          62.2224   89.8201   14.5337 O.2     1  UNL1       -0.2728
@<TRIPOS>BOND
     1    19    20    1
     2    20    21    1
     3    20    22   am
     4    22    23    2
     5    22    18    1
     6    18     1    1
     7     1     2   ar
     8     2     3   ar
     9     3     4   ar
    10     4     5   ar
    11     5     6   ar
    12     6     7   ar
    13     7    10    1
    14    10    11   ar
    15    11    12   ar
    16    12    13   ar
    17    13    14    1
    18    13    15   ar
    19    15    16    1
    20    15    17   ar
    21     7     8   ar
    22     8     9   ar
    23     9     1   ar
    24     9     4   ar
    25    17    10   ar
@<TRIPOS>MOLECULE
*****
 23 25 0 0 0
SMALL
GASTEIGER

@<TRIPOS>ATOM
      1 N          64.0045   84.7145   13.8361 N.ar    1  UNL1       -0.3165
      2 C          64.8507   85.1580   14.9925 C.ar    1  UNL1        0.0779
      3 C          64.8924   86.6574   14.9881 C.ar    1  UNL1        0.0392
      4 C          64.0720   87.1406   13.8290 C.ar    1  UNL1        0.0985
      5 N          63.7538   88.5188   13.3299 N.ar    1  UNL1       -0.2423
      6 C          62.8868   88.6963   12.1188 C.ar    1  UNL1        0.0989
      7 C          62.3381   87.4955   11.4068 C.ar    1  UNL1        0.0207
      8 C          62.6563   86.1172   11.9059 C.ar    1  UNL1        0.0203
      9 C          63.5233   85.9398   13.1170 C.ar    1  UNL1        0.0782
     10 C          61.4711   87.6730   10.1956 C.ar    1  UNL1        0.0039
     11 C          60.9939   89.0414    9.8088 C.ar    1  UNL1        0.0025
     12 C          60.1269   89.2189    8.5977 C.ar    1  UNL1        0.0320
     13 C          59.7371   88.0279    7.7733 C.ar    1  UNL1        0.1674
     14 F          58.8701   88.2053    6.5622 F       1  UNL1       -0.2018
     15 C          60.2143   86.6594    8.1602 C.ar    1  UNL1        0.1674
     16 F          59.8244   85.4683    7.3359 F       1  UNL1       -0.2018
     17 C          61.0812   86.4819    9.3713 C.ar    1  UNL1        0.0320
     18 C          63.6940   83.2949   13.4641 C.3     1  UNL1        0.1920
     19 C          60.8263   80.6214   14.0793 C.3     1  UNL1        0.1150
     20 N          62.0187   81.3092   13.4834 N.am    1  UNL1       -0.2744
     21 C          62.7282   80.6992   12.3110 C.3     1  UNL1        0.1150
     22 C          62.5016   82.6071   14.0600 C.2     1  UNL1        0.2488
     23 O          61.7920   83.2171   15.2323 O.2     1  UNL1       -0.2728
@<TRIPOS>BOND
     1    19    20    1
     2    20    21    1
     3    20    22   am
     4    22    23    2
     5    22    18    1
     6    18     1    1
     7     1     2   ar
     8     2     3   ar
     9     3     4   ar
    10     4     5   ar
    11     5     6   ar
    12     6     7   ar
    13     7    10    1
    14    10    11   ar
    15    11    12   ar
    16    12    13   ar
    17    13    14    1
    18    13    15   ar
    19    15    16    1
    20    15    17   ar
    21     7     8   ar
    22     8     9   ar
    23     9     1   ar
    24     9     4   ar
    25    17    10   ar
