@<TRIPOS>MOLECULE
*****
 36 39 0 0 0
SMALL
GASTEIGER

@<TRIPOS>ATOM
      1 C          64.5654   85.6410   14.5804 C.2     1  UNL1        0.2015
      2 O          65.9852   85.1874   14.7481 O.2     1  UNL1       -0.2864
      3 C          63.9613   86.5953   15.5675 C.ar    1  UNL1        0.0611
      4 C          63.2298   86.2203   16.8222 C.ar    1  UNL1        0.1037
      5 N          62.7991   87.4855   17.5033 N.ar    1  UNL1       -0.2269
      6 C          63.2645   88.6424   16.6696 C.ar    1  UNL1        0.1407
      7 N          63.1270   90.1256   16.8453 N.ar    1  UNL1       -0.3374
      8 C          63.7078   91.0588   15.8246 C.ar    1  UNL1        0.0735
      9 C          64.4261   90.5086   14.6282 C.ar    1  UNL1        0.0186
     10 C          64.5636   89.0253   14.4525 C.ar    1  UNL1        0.0047
     11 C          63.9828   88.0922   15.4732 C.ar    1  UNL1        0.0386
     12 H          62.6555   90.4867   17.6305 H       1  UNL1        0.1674
     13 C          65.0070   91.4419   13.6075 C.ar    1  UNL1        0.0206
     14 C          64.4110   91.5149   12.2329 C.ar    1  UNL1        0.0037
     15 C          64.9919   92.4481   11.2122 C.ar    1  UNL1        0.0255
     16 C          66.1687   93.3083   11.5662 C.ar    1  UNL1        0.1067
     17 N          66.7646   93.2352   12.9408 N.ar    1  UNL1       -0.2376
     18 C          66.1837   92.3020   13.9614 C.ar    1  UNL1        0.0994
     19 S          66.7495   94.2415   10.5455 S.3     1  UNL1       -0.0940
     20 C          67.6239   93.7055    9.4510 C.3     1  UNL1        0.0757
     21 C          62.4128   85.6037   11.2464 C.ar    1  UNL1        0.0920
     22 C          62.1179   84.1388   11.1158 C.ar    1  UNL1        0.0204
     23 C          62.6389   83.1747   12.1400 C.ar    1  UNL1        0.0312
     24 C          63.4547   83.6753   13.2949 C.ar    1  UNL1        0.1454
     25 F          63.9756   82.7111   14.3191 F       1  UNL1       -0.2040
     26 C          63.7496   85.1402   13.4255 C.ar    1  UNL1        0.0951
     27 C          63.2286   86.1044   12.4013 C.ar    1  UNL1        0.1598
     28 F          63.5236   87.5693   12.5320 F       1  UNL1       -0.2026
     29 N          61.8919   86.5679   10.2222 N.pl3   1  UNL1       -0.2166
     30 H          61.7611   87.5145   10.4590 H       1  UNL1        0.1734
     31 S          61.5702   86.0898    8.8374 S.O2    1  UNL1        0.0540
     32 O          60.1101   86.3117    9.0999 O.2     1  UNL1       -0.1545
     33 O          63.0303   85.8678    8.5749 O.2     1  UNL1       -0.1545
     34 C          61.2486   85.6116    7.4525 C.3     1  UNL1        0.1724
     35 C          61.8595   84.1673    5.3810 C.3     1  UNL1        0.0019
     36 C          62.2388   84.7732    6.6997 C.3     1  UNL1        0.0273
@<TRIPOS>BOND
     1    35    36    1
     2    36    34    1
     3    34    31    1
     4    31    32    2
     5    31    33    2
     6    31    29    1
     7    29    21    1
     8    21    22   ar
     9    22    23   ar
    10    23    24   ar
    11    24    25    1
    12    24    26   ar
    13    26     1    1
    14     1     2    2
    15     1     3    1
    16     3     4   ar
    17     4     5   ar
    18     5     6   ar
    19     6     7   ar
    20     7     8   ar
    21     8     9   ar
    22     9    13    1
    23    13    14   ar
    24    14    15   ar
    25    15    16   ar
    26    16    19    1
    27    19    20    1
    28    16    17   ar
    29    17    18   ar
    30     9    10   ar
    31    10    11   ar
    32    26    27   ar
    33    27    28    1
    34    27    21   ar
    35    11     3   ar
    36    11     6    1
    37    18    13   ar
    38    29    30    1
    39     7    12    1
@<TRIPOS>MOLECULE
*****
 36 39 0 0 0
SMALL
GASTEIGER

@<TRIPOS>ATOM
      1 C          64.6910   85.6666   14.6903 C.2     1  UNL1        0.2015
      2 O          66.1675   85.4255   14.7987 O.2     1  UNL1       -0.2864
      3 C          64.0255   86.6629   15.5927 C.ar    1  UNL1        0.0611
      4 C          63.2488   86.3454   16.8360 C.ar    1  UNL1        0.1037
      5 N          62.7631   87.6380   17.4219 N.ar    1  UNL1       -0.2269
      6 C          63.2395   88.7544   16.5406 C.ar    1  UNL1        0.1407
      7 N          63.0637   90.2418   16.6216 N.ar    1  UNL1       -0.3374
      8 C          63.6681   91.1266   15.5720 C.ar    1  UNL1        0.0735
      9 C          64.4483   90.5240   14.4414 C.ar    1  UNL1        0.0186
     10 C          64.6241   89.0366   14.3605 C.ar    1  UNL1        0.0047
     11 C          64.0197   88.1518   15.4101 C.ar    1  UNL1        0.0386
     12 H          62.5516   90.6373   17.3636 H       1  UNL1        0.1674
     13 C          65.0527   91.4089   13.3918 C.ar    1  UNL1        0.0206
     14 C          64.4056   91.5229   12.0434 C.ar    1  UNL1        0.0037
     15 C          65.0100   92.4079   10.9938 C.ar    1  UNL1        0.0255
     16 C          66.2616   93.1787   11.2926 C.ar    1  UNL1        0.1067
     17 N          66.9088   93.0647   12.6410 N.ar    1  UNL1       -0.2376
     18 C          66.3043   92.1798   13.6906 C.ar    1  UNL1        0.0994
     19 S          66.8660   94.0636   10.2430 S.3     1  UNL1       -0.0940
     20 C          67.8519   93.4995    9.2634 C.3     1  UNL1        0.0757
     21 C          62.4679   84.8775   11.4989 C.ar    1  UNL1        0.0920
     22 C          62.2581   83.4007   11.6576 C.ar    1  UNL1        0.0204
     23 C          62.8594   82.6793   12.8272 C.ar    1  UNL1        0.0312
     24 C          63.6703   83.4345   13.8381 C.ar    1  UNL1        0.1454
     25 F          64.2715   82.7130   15.0077 F       1  UNL1       -0.2040
     26 C          63.8800   84.9113   13.6794 C.ar    1  UNL1        0.0951
     27 C          63.2788   85.6327   12.5098 C.ar    1  UNL1        0.1598
     28 F          63.4886   87.1095   12.3511 F       1  UNL1       -0.2026
     29 N          61.8666   85.5989   10.3292 N.pl3   1  UNL1       -0.2166
     30 H          61.6793   85.1124    9.4941 H       1  UNL1        0.1734
     31 S          61.5509   87.0617   10.4320 S.O2    1  UNL1        0.0540
     32 O          62.4932   87.3447    9.2998 O.2     1  UNL1       -0.1545
     33 O          60.6085   86.7787   11.5642 O.2     1  UNL1       -0.1545
     34 C          61.2350   88.5244   10.5349 C.3     1  UNL1        0.1724
     35 C          59.6586   90.4313   11.3281 C.3     1  UNL1        0.0019
     36 C          60.0387   88.9803   11.3166 C.3     1  UNL1        0.0273
@<TRIPOS>BOND
     1    35    36    1
     2    36    34    1
     3    34    31    1
     4    31    32    2
     5    31    33    2
     6    31    29    1
     7    29    21    1
     8    21    22   ar
     9    22    23   ar
    10    23    24   ar
    11    24    25    1
    12    24    26   ar
    13    26     1    1
    14     1     2    2
    15     1     3    1
    16     3     4   ar
    17     4     5   ar
    18     5     6   ar
    19     6     7   ar
    20     7     8   ar
    21     8     9   ar
    22     9    13    1
    23    13    14   ar
    24    14    15   ar
    25    15    16   ar
    26    16    19    1
    27    19    20    1
    28    16    17   ar
    29    17    18   ar
    30     9    10   ar
    31    10    11   ar
    32    26    27   ar
    33    27    28    1
    34    27    21   ar
    35    11     3   ar
    36    11     6    1
    37    18    13   ar
    38    29    30    1
    39     7    12    1
@<TRIPOS>MOLECULE
*****
 36 39 0 0 0
SMALL
GASTEIGER

@<TRIPOS>ATOM
      1 C          62.6353   85.3999    9.3179 C.2     1  UNL1        0.2015
      2 O          63.3911   85.1596    8.0448 O.2     1  UNL1       -0.2864
      3 C          61.5354   86.4190    9.3562 C.ar    1  UNL1        0.0611
      4 C          60.1763   86.2731    8.7385 C.ar    1  UNL1        0.1037
      5 N          59.4024   87.5269    9.0195 N.ar    1  UNL1       -0.2269
      6 C          60.2831   88.4477    9.8110 C.ar    1  UNL1        0.1407
      7 N          60.0550   89.8212   10.3691 N.ar    1  UNL1       -0.3374
      8 C          61.1452   90.5099   11.1352 C.ar    1  UNL1        0.0735
      9 C          62.4635   89.8252   11.3433 C.ar    1  UNL1        0.0186
     10 C          62.6916   88.4517   10.7853 C.ar    1  UNL1        0.0047
     11 C          61.6014   87.7630   10.0191 C.ar    1  UNL1        0.0386
     12 H          59.1898   90.2706   10.2325 H       1  UNL1        0.1674
     13 C          63.5537   90.5140   12.1096 C.ar    1  UNL1        0.0206
     14 C          63.9619   90.0007   13.4585 C.ar    1  UNL1        0.0037
     15 C          65.0521   90.6895   14.2248 C.ar    1  UNL1        0.0255
     16 C          65.7341   91.8917   13.6419 C.ar    1  UNL1        0.1067
     17 N          65.3259   92.4050   12.2929 N.ar    1  UNL1       -0.2376
     18 C          64.2357   91.7162   11.5267 C.ar    1  UNL1        0.0994
     19 S          66.8243   92.5805   14.4081 S.3     1  UNL1       -0.0940
     20 C          66.7412   92.6833   15.9022 C.3     1  UNL1        0.0757
     21 C          62.6767   84.1868   13.0964 C.ar    1  UNL1        0.0920
     22 C          63.6678   83.0633   13.0226 C.ar    1  UNL1        0.0204
     23 C          64.3147   82.7187   11.7139 C.ar    1  UNL1        0.0312
     24 C          63.9706   83.4975   10.4790 C.ar    1  UNL1        0.1454
     25 F          64.6175   83.1528    9.1703 F       1  UNL1       -0.2040
     26 C          62.9795   84.6210   10.5529 C.ar    1  UNL1        0.0951
     27 C          62.3326   84.9656   11.8615 C.ar    1  UNL1        0.1598
     28 F          61.3415   86.0892   11.9353 F       1  UNL1       -0.2026
     29 N          62.0298   84.5315   14.4051 N.pl3   1  UNL1       -0.2166
     30 H          61.0876   84.2955   14.5657 H       1  UNL1        0.1734
     31 S          62.8184   85.2358   15.4691 S.O2    1  UNL1        0.0540
     32 O          62.1208   84.4264   16.5219 O.2     1  UNL1       -0.1545
     33 O          63.5159   86.0451   14.4163 O.2     1  UNL1       -0.1545
     34 C          63.6071   85.9401   16.5330 C.3     1  UNL1        0.1724
     35 C          63.0552   88.4299   17.0293 C.3     1  UNL1        0.0019
     36 C          62.9478   86.9784   17.3918 C.3     1  UNL1        0.0273
@<TRIPOS>BOND
     1    35    36    1
     2    36    34    1
     3    34    31    1
     4    31    32    2
     5    31    33    2
     6    31    29    1
     7    29    21    1
     8    21    22   ar
     9    22    23   ar
    10    23    24   ar
    11    24    25    1
    12    24    26   ar
    13    26     1    1
    14     1     2    2
    15     1     3    1
    16     3     4   ar
    17     4     5   ar
    18     5     6   ar
    19     6     7   ar
    20     7     8   ar
    21     8     9   ar
    22     9    13    1
    23    13    14   ar
    24    14    15   ar
    25    15    16   ar
    26    16    19    1
    27    19    20    1
    28    16    17   ar
    29    17    18   ar
    30     9    10   ar
    31    10    11   ar
    32    26    27   ar
    33    27    28    1
    34    27    21   ar
    35    11     3   ar
    36    11     6    1
    37    18    13   ar
    38    29    30    1
    39     7    12    1
@<TRIPOS>MOLECULE
*****
 36 39 0 0 0
SMALL
GASTEIGER

@<TRIPOS>ATOM
      1 C          63.2269   90.3549   13.6495 C.2     1  UNL1        0.2015
      2 O          62.4770   89.7484   14.7983 O.2     1  UNL1       -0.2864
      3 C          62.8005   90.0679   12.2403 C.ar    1  UNL1        0.0611
      4 C          62.4702   91.0903   11.1936 C.ar    1  UNL1        0.1037
      5 N          62.0951   90.3624    9.9368 N.ar    1  UNL1       -0.2269
      6 C          62.1937   88.8902   10.2068 C.ar    1  UNL1        0.1407
      7 N          61.9427   87.6918    9.3402 N.ar    1  UNL1       -0.3374
      8 C          62.1278   86.3115    9.8973 C.ar    1  UNL1        0.0735
      9 C          62.5637   86.1295   11.3210 C.ar    1  UNL1        0.0186
     10 C          62.8147   87.3278   12.1876 C.ar    1  UNL1        0.0047
     11 C          62.6296   88.7082   11.6305 C.ar    1  UNL1        0.0386
     12 H          61.6566   87.8113    8.4059 H       1  UNL1        0.1674
     13 C          62.7488   84.7491   11.8781 C.ar    1  UNL1        0.0206
     14 C          63.0604   83.6051   10.9593 C.ar    1  UNL1        0.0037
     15 C          63.2454   82.2247   11.5164 C.ar    1  UNL1        0.0255
     16 C          63.1189   81.9883   12.9923 C.ar    1  UNL1        0.1067
     17 N          62.8073   83.1324   13.9110 N.ar    1  UNL1       -0.2376
     18 C          62.6223   84.5127   13.3539 C.ar    1  UNL1        0.0994
     19 S          63.3039   80.6080   13.5494 S.3     1  UNL1       -0.0940
     20 C          62.1653   79.6317   13.5278 C.3     1  UNL1        0.0757
     21 C          66.3301   92.7479   13.0215 C.ar    1  UNL1        0.0920
     22 C          66.7561   93.0353   14.4308 C.ar    1  UNL1        0.0204
     23 C          66.0058   92.4292   15.5795 C.ar    1  UNL1        0.0312
     24 C          64.8294   91.5358   15.3192 C.ar    1  UNL1        0.1454
     25 F          64.0791   90.9297   16.4680 F       1  UNL1       -0.2040
     26 C          64.4034   91.2484   13.9100 C.ar    1  UNL1        0.0951
     27 C          65.1537   91.8544   12.7612 C.ar    1  UNL1        0.1598
     28 F          64.7276   91.5670   11.3520 F       1  UNL1       -0.2026
     29 N          67.0804   93.3539   11.8728 N.pl3   1  UNL1       -0.2166
     30 H          67.9897   93.0425   11.6597 H       1  UNL1        0.1734
     31 S          66.4453   94.4344   11.0487 S.O2    1  UNL1        0.0540
     32 O          66.6597   93.6159    9.8102 O.2     1  UNL1       -0.1545
     33 O          66.2308   95.2530   12.2872 O.2     1  UNL1       -0.1545
     34 C          65.8102   95.5150   10.2247 C.3     1  UNL1        0.1724
     35 C          67.2729   96.8551    8.5470 C.3     1  UNL1        0.0019
     36 C          66.5888   96.7492    9.8777 C.3     1  UNL1        0.0273
@<TRIPOS>BOND
     1    35    36    1
     2    36    34    1
     3    34    31    1
     4    31    32    2
     5    31    33    2
     6    31    29    1
     7    29    21    1
     8    21    22   ar
     9    22    23   ar
    10    23    24   ar
    11    24    25    1
    12    24    26   ar
    13    26     1    1
    14     1     2    2
    15     1     3    1
    16     3     4   ar
    17     4     5   ar
    18     5     6   ar
    19     6     7   ar
    20     7     8   ar
    21     8     9   ar
    22     9    13    1
    23    13    14   ar
    24    14    15   ar
    25    15    16   ar
    26    16    19    1
    27    19    20    1
    28    16    17   ar
    29    17    18   ar
    30     9    10   ar
    31    10    11   ar
    32    26    27   ar
    33    27    28    1
    34    27    21   ar
    35    11     3   ar
    36    11     6    1
    37    18    13   ar
    38    29    30    1
    39     7    12    1
@<TRIPOS>MOLECULE
*****
 36 39 0 0 0
SMALL
GASTEIGER

@<TRIPOS>ATOM
      1 C          62.8460   85.3550   11.0544 C.2     1  UNL1        0.2015
      2 O          63.6891   84.6970   10.0028 O.2     1  UNL1       -0.2864
      3 C          61.8648   86.4224   10.6698 C.ar    1  UNL1        0.0611
      4 C          60.5785   86.2115    9.9275 C.ar    1  UNL1        0.1037
      5 N          59.9164   87.5469    9.7589 N.ar    1  UNL1       -0.2269
      6 C          60.7934   88.5830   10.3970 C.ar    1  UNL1        0.1407
      7 N          60.6511   90.0696   10.5381 N.ar    1  UNL1       -0.3374
      8 C          61.7130   90.8611   11.2422 C.ar    1  UNL1        0.0735
      9 C          62.9172   90.1662   11.8052 C.ar    1  UNL1        0.0186
     10 C          63.0595   88.6796   11.6641 C.ar    1  UNL1        0.0047
     11 C          61.9976   87.8881   10.9600 C.ar    1  UNL1        0.0386
     12 H          59.8608   90.5257   10.1686 H       1  UNL1        0.1674
     13 C          63.9791   90.9578   12.5093 C.ar    1  UNL1        0.0206
     14 C          64.3815   90.5950   13.9080 C.ar    1  UNL1        0.0037
     15 C          65.4434   91.3867   14.6122 C.ar    1  UNL1        0.0255
     16 C          66.1029   92.5411   13.9175 C.ar    1  UNL1        0.1067
     17 N          65.7004   92.9038   12.5188 N.ar    1  UNL1       -0.2376
     18 C          64.6385   92.1122   11.8147 C.ar    1  UNL1        0.0994
     19 S          67.1647   93.3327   14.6216 S.3     1  UNL1       -0.0940
     20 C          67.5124   93.0199   16.0468 C.3     1  UNL1        0.0757
     21 C          62.6528   83.1822   14.3698 C.ar    1  UNL1        0.0920
     22 C          63.2606   84.1270   15.3638 C.ar    1  UNL1        0.0204
     23 C          63.7301   85.4811   14.9213 C.ar    1  UNL1        0.0312
     24 C          63.5920   85.8905   13.4849 C.ar    1  UNL1        0.1454
     25 F          64.0616   87.2447   13.0424 F       1  UNL1       -0.2040
     26 C          62.9842   84.9457   12.4910 C.ar    1  UNL1        0.0951
     27 C          62.5146   83.5916   12.9335 C.ar    1  UNL1        0.1598
     28 F          61.9068   82.6468   11.9394 F       1  UNL1       -0.2026
     29 N          62.1832   81.8281   14.8123 N.pl3   1  UNL1       -0.2166
     30 H          61.8124   81.7067   15.7162 H       1  UNL1        0.1734
     31 S          62.2785   80.6588   13.8776 S.O2    1  UNL1        0.0540
     32 O          63.7751   80.7529   13.9125 O.2     1  UNL1       -0.1545
     33 O          60.7819   80.5647   13.8427 O.2     1  UNL1       -0.1545
     34 C          62.3737   79.4896   12.9429 C.3     1  UNL1        0.1724
     35 C          62.7493   78.5556   10.5477 C.3     1  UNL1        0.0019
     36 C          62.7772   79.7026   11.5139 C.3     1  UNL1        0.0273
@<TRIPOS>BOND
     1    35    36    1
     2    36    34    1
     3    34    31    1
     4    31    32    2
     5    31    33    2
     6    31    29    1
     7    29    21    1
     8    21    22   ar
     9    22    23   ar
    10    23    24   ar
    11    24    25    1
    12    24    26   ar
    13    26     1    1
    14     1     2    2
    15     1     3    1
    16     3     4   ar
    17     4     5   ar
    18     5     6   ar
    19     6     7   ar
    20     7     8   ar
    21     8     9   ar
    22     9    13    1
    23    13    14   ar
    24    14    15   ar
    25    15    16   ar
    26    16    19    1
    27    19    20    1
    28    16    17   ar
    29    17    18   ar
    30     9    10   ar
    31    10    11   ar
    32    26    27   ar
    33    27    28    1
    34    27    21   ar
    35    11     3   ar
    36    11     6    1
    37    18    13   ar
    38    29    30    1
    39     7    12    1
@<TRIPOS>MOLECULE
*****
 36 39 0 0 0
SMALL
GASTEIGER

@<TRIPOS>ATOM
      1 C          64.2980   90.4823   14.3673 C.2     1  UNL1        0.2015
      2 O          63.3125   91.2143   15.2291 O.2     1  UNL1       -0.2864
      3 C          64.2402   88.9868   14.2661 C.ar    1  UNL1        0.0611
      4 C          64.8908   88.0138   15.2042 C.ar    1  UNL1        0.1037
      5 N          64.5744   86.6275   14.7268 N.ar    1  UNL1       -0.2269
      6 C          63.7282   86.7436   13.4937 C.ar    1  UNL1        0.1407
      7 N          63.1191   85.7100   12.5934 N.ar    1  UNL1       -0.3374
      8 C          62.3035   86.1346   11.4083 C.ar    1  UNL1        0.0735
      9 C          62.0970   87.5927   11.1235 C.ar    1  UNL1        0.0186
     10 C          62.7061   88.6264   12.0238 C.ar    1  UNL1        0.0047
     11 C          63.5217   88.2018   13.2089 C.ar    1  UNL1        0.0386
     12 H          63.2547   84.7530   12.7803 H       1  UNL1        0.1674
     13 C          61.2814   88.0173    9.9383 C.ar    1  UNL1        0.0206
     14 C          60.6792   86.9838    9.0333 C.ar    1  UNL1        0.0037
     15 C          59.8635   87.4083    7.8481 C.ar    1  UNL1        0.0255
     16 C          59.6501   88.8664    7.5681 C.ar    1  UNL1        0.1067
     17 N          60.2524   89.9000    8.4732 N.ar    1  UNL1       -0.2376
     18 C          61.0680   89.4754    9.6583 C.ar    1  UNL1        0.0994
     19 S          58.8345   89.2910    6.3830 S.3     1  UNL1       -0.0940
     20 C          59.1682   90.5618    5.6594 C.3     1  UNL1        0.0757
     21 C          66.0339   92.6636   11.5426 C.ar    1  UNL1        0.0920
     22 C          67.4281   92.7726   12.0853 C.ar    1  UNL1        0.0204
     23 C          67.7788   92.1182   13.3886 C.ar    1  UNL1        0.0312
     24 C          66.7355   91.3547   14.1493 C.ar    1  UNL1        0.1454
     25 F          67.0863   90.7003   15.4526 F       1  UNL1       -0.2040
     26 C          65.3414   91.2457   13.6066 C.ar    1  UNL1        0.0951
     27 C          64.9906   91.9002   12.3033 C.ar    1  UNL1        0.1598
     28 F          63.5965   91.7911   11.7606 F       1  UNL1       -0.2026
     29 N          65.6832   93.3180   10.2393 N.pl3   1  UNL1       -0.2166
     30 H          64.8928   93.0179    9.7347 H       1  UNL1        0.1734
     31 S          66.5365   94.4297    9.7046 S.O2    1  UNL1        0.0540
     32 O          65.6972   95.4294   10.4435 O.2     1  UNL1       -0.1545
     33 O          67.3759   93.4300    8.9657 O.2     1  UNL1       -0.1545
     34 C          67.3900   95.5413    9.1700 C.3     1  UNL1        0.1724
     35 C          66.0100   96.6528    7.2698 C.3     1  UNL1        0.0019
     36 C          66.7485   96.7579    8.5712 C.3     1  UNL1        0.0273
@<TRIPOS>BOND
     1    35    36    1
     2    36    34    1
     3    34    31    1
     4    31    32    2
     5    31    33    2
     6    31    29    1
     7    29    21    1
     8    21    22   ar
     9    22    23   ar
    10    23    24   ar
    11    24    25    1
    12    24    26   ar
    13    26     1    1
    14     1     2    2
    15     1     3    1
    16     3     4   ar
    17     4     5   ar
    18     5     6   ar
    19     6     7   ar
    20     7     8   ar
    21     8     9   ar
    22     9    13    1
    23    13    14   ar
    24    14    15   ar
    25    15    16   ar
    26    16    19    1
    27    19    20    1
    28    16    17   ar
    29    17    18   ar
    30     9    10   ar
    31    10    11   ar
    32    26    27   ar
    33    27    28    1
    34    27    21   ar
    35    11     3   ar
    36    11     6    1
    37    18    13   ar
    38    29    30    1
    39     7    12    1
@<TRIPOS>MOLECULE
*****
 36 39 0 0 0
SMALL
GASTEIGER

@<TRIPOS>ATOM
      1 C          65.2502   90.9666   13.7697 C.2     1  UNL1        0.2015
      2 O          66.7485   91.0377   13.7636 O.2     1  UNL1       -0.2864
      3 C          64.5165   90.7151   15.0536 C.ar    1  UNL1        0.0611
      4 C          64.1262   91.7529   16.0639 C.ar    1  UNL1        0.1037
      5 N          63.4127   91.0608   17.1872 N.ar    1  UNL1       -0.2269
      6 C          63.3620   89.5954   16.8712 C.ar    1  UNL1        0.1407
      7 N          62.7828   88.4279   17.6139 N.ar    1  UNL1       -0.3374
      8 C          62.8858   87.0468   17.0378 C.ar    1  UNL1        0.0735
      9 C          63.5680   86.8332   15.7192 C.ar    1  UNL1        0.0186
     10 C          64.1472   88.0006   14.9765 C.ar    1  UNL1        0.0047
     11 C          64.0442   89.3817   15.5525 C.ar    1  UNL1        0.0386
     12 H          62.3350   88.5682   18.4794 H       1  UNL1        0.1674
     13 C          63.6710   85.4519   15.1431 C.ar    1  UNL1        0.0206
     14 C          64.6280   85.1766   14.0214 C.ar    1  UNL1        0.0037
     15 C          64.7310   83.7954   13.4454 C.ar    1  UNL1        0.0255
     16 C          63.8769   82.6896   13.9911 C.ar    1  UNL1        0.1067
     17 N          62.9199   82.9650   15.1129 N.ar    1  UNL1       -0.2376
     18 C          62.8170   84.3462   15.6889 C.ar    1  UNL1        0.0994
     19 S          63.9799   81.3085   13.4151 S.3     1  UNL1       -0.0940
     20 C          62.8126   80.7105   12.6872 C.3     1  UNL1        0.0757
     21 C          62.4096   90.6256   11.0192 C.ar    1  UNL1        0.0920
     22 C          62.9565   91.5075    9.9361 C.ar    1  UNL1        0.0204
     23 C          64.2680   92.2091   10.1308 C.ar    1  UNL1        0.0312
     24 C          65.0326   92.0288   11.4086 C.ar    1  UNL1        0.1454
     25 F          66.3440   92.7303   11.6033 F       1  UNL1       -0.2040
     26 C          64.4856   91.1469   12.4918 C.ar    1  UNL1        0.0951
     27 C          63.1742   90.4454   12.2970 C.ar    1  UNL1        0.1598
     28 F          62.6273   89.5635   13.3802 F       1  UNL1       -0.2026
     29 N          61.0982   89.9241   10.8245 N.pl3   1  UNL1       -0.2166
     30 H          60.2764   90.4473   10.6821 H       1  UNL1        0.1734
     31 S          61.0388   88.4254   10.8467 S.O2    1  UNL1        0.0540
     32 O          60.0293   88.4819   11.9547 O.2     1  UNL1       -0.1545
     33 O          62.0483   88.3690    9.7387 O.2     1  UNL1       -0.1545
     34 C          60.9794   86.9268   10.8688 C.3     1  UNL1        0.1724
     35 C          62.4551   84.7884   10.8654 C.3     1  UNL1        0.0019
     36 C          62.1263   86.1390   11.4292 C.3     1  UNL1        0.0273
@<TRIPOS>BOND
     1    35    36    1
     2    36    34    1
     3    34    31    1
     4    31    32    2
     5    31    33    2
     6    31    29    1
     7    29    21    1
     8    21    22   ar
     9    22    23   ar
    10    23    24   ar
    11    24    25    1
    12    24    26   ar
    13    26     1    1
    14     1     2    2
    15     1     3    1
    16     3     4   ar
    17     4     5   ar
    18     5     6   ar
    19     6     7   ar
    20     7     8   ar
    21     8     9   ar
    22     9    13    1
    23    13    14   ar
    24    14    15   ar
    25    15    16   ar
    26    16    19    1
    27    19    20    1
    28    16    17   ar
    29    17    18   ar
    30     9    10   ar
    31    10    11   ar
    32    26    27   ar
    33    27    28    1
    34    27    21   ar
    35    11     3   ar
    36    11     6    1
    37    18    13   ar
    38    29    30    1
    39     7    12    1
@<TRIPOS>MOLECULE
*****
 36 39 0 0 0
SMALL
GASTEIGER

@<TRIPOS>ATOM
      1 C          60.5441   90.2520   10.8687 C.2     1  UNL1        0.2015
      2 O          59.3289   90.6712   11.6416 O.2     1  UNL1       -0.2864
      3 C          60.3923   89.4606    9.6036 C.ar    1  UNL1        0.0611
      4 C          59.7657   89.9456    8.3300 C.ar    1  UNL1        0.1037
      5 N          59.8266   88.8298    7.3293 N.ar    1  UNL1       -0.2269
      6 C          60.4908   87.6553    7.9844 C.ar    1  UNL1        0.1407
      7 N          60.8224   86.2812    7.4826 N.ar    1  UNL1       -0.3374
      8 C          61.5037   85.2969    8.3865 C.ar    1  UNL1        0.0735
      9 C          61.8533   85.6867    9.7921 C.ar    1  UNL1        0.0186
     10 C          61.5217   87.0608   10.2939 C.ar    1  UNL1        0.0047
     11 C          60.8404   88.0451    9.3900 C.ar    1  UNL1        0.0386
     12 H          60.5929   86.0253    6.5601 H       1  UNL1        0.1674
     13 C          62.5346   84.7023   10.6960 C.ar    1  UNL1        0.0206
     14 C          63.4689   83.6788   10.1218 C.ar    1  UNL1        0.0037
     15 C          64.1502   82.6945   11.0257 C.ar    1  UNL1        0.0255
     16 C          63.8972   82.7336   12.5037 C.ar    1  UNL1        0.1067
     17 N          62.9629   83.7572   13.0778 N.ar    1  UNL1       -0.2376
     18 C          62.2817   84.7415   12.1740 C.ar    1  UNL1        0.0994
     19 S          64.5784   81.7493   13.4076 S.3     1  UNL1       -0.0940
     20 C          63.7891   80.6428   14.0420 C.3     1  UNL1        0.0757
     21 C          63.6442   90.7744   13.2909 C.ar    1  UNL1        0.0920
     22 C          64.6456   91.3690   12.3454 C.ar    1  UNL1        0.0204
     23 C          64.2798   91.5913   10.9078 C.ar    1  UNL1        0.0312
     24 C          62.9127   91.2190   10.4155 C.ar    1  UNL1        0.1454
     25 F          62.5469   91.4413    8.9779 F       1  UNL1       -0.2040
     26 C          61.9113   90.6244   11.3609 C.ar    1  UNL1        0.0951
     27 C          62.2771   90.4021   12.7986 C.ar    1  UNL1        0.1598
     28 F          61.2757   89.8075   13.7439 F       1  UNL1       -0.2026
     29 N          64.0100   90.5521   14.7285 N.pl3   1  UNL1       -0.2166
     30 H          64.4132   91.2817   15.2523 H       1  UNL1        0.1734
     31 S          63.7616   89.2182   15.3680 S.O2    1  UNL1        0.0540
     32 O          62.8931   89.8747   16.3998 O.2     1  UNL1       -0.1545
     33 O          64.6301   88.5618   14.3361 O.2     1  UNL1       -0.1545
     34 C          63.5132   87.8843   16.0074 C.3     1  UNL1        0.1724
     35 C          62.6581   86.4766   18.0167 C.3     1  UNL1        0.0019
     36 C          62.9105   87.8106   17.3790 C.3     1  UNL1        0.0273
@<TRIPOS>BOND
     1    35    36    1
     2    36    34    1
     3    34    31    1
     4    31    32    2
     5    31    33    2
     6    31    29    1
     7    29    21    1
     8    21    22   ar
     9    22    23   ar
    10    23    24   ar
    11    24    25    1
    12    24    26   ar
    13    26     1    1
    14     1     2    2
    15     1     3    1
    16     3     4   ar
    17     4     5   ar
    18     5     6   ar
    19     6     7   ar
    20     7     8   ar
    21     8     9   ar
    22     9    13    1
    23    13    14   ar
    24    14    15   ar
    25    15    16   ar
    26    16    19    1
    27    19    20    1
    28    16    17   ar
    29    17    18   ar
    30     9    10   ar
    31    10    11   ar
    32    26    27   ar
    33    27    28    1
    34    27    21   ar
    35    11     3   ar
    36    11     6    1
    37    18    13   ar
    38    29    30    1
    39     7    12    1
@<TRIPOS>MOLECULE
*****
 36 39 0 0 0
SMALL
GASTEIGER

@<TRIPOS>ATOM
      1 C          62.7642   85.3086    9.6472 C.2     1  UNL1        0.2015
      2 O          63.6404   84.8750    8.5097 O.2     1  UNL1       -0.2864
      3 C          61.6136   86.2376    9.3959 C.ar    1  UNL1        0.0611
      4 C          60.2897   85.8604    8.8003 C.ar    1  UNL1        0.1037
      5 N          59.4429   87.0966    8.7324 N.ar    1  UNL1       -0.2269
      6 C          60.2435   88.2379    9.2860 C.ar    1  UNL1        0.1407
      7 N          59.9242   89.6919    9.4698 N.ar    1  UNL1       -0.3374
      8 C          60.9465   90.6150   10.0636 C.ar    1  UNL1        0.0735
      9 C          62.2881   90.0841   10.4737 C.ar    1  UNL1        0.0186
     10 C          62.6074   88.6301   10.2900 C.ar    1  UNL1        0.0047
     11 C          61.5851   87.7070    9.6961 C.ar    1  UNL1        0.0386
     12 H          59.0436   90.0404    9.2006 H       1  UNL1        0.1674
     13 C          63.3104   91.0074   11.0675 C.ar    1  UNL1        0.0206
     14 C          64.0713   91.9514   10.1845 C.ar    1  UNL1        0.0037
     15 C          65.0936   92.8747   10.7783 C.ar    1  UNL1        0.0255
     16 C          65.3550   92.8537   12.2552 C.ar    1  UNL1        0.1067
     17 N          64.5941   91.9096   13.1383 N.ar    1  UNL1       -0.2376
     18 C          63.5719   90.9864   12.5444 C.ar    1  UNL1        0.0994
     19 S          66.3773   93.7769   12.8491 S.3     1  UNL1       -0.0940
     20 C          66.5341   95.1681   12.3108 C.3     1  UNL1        0.0757
     21 C          63.4643   82.8473   12.6808 C.ar    1  UNL1        0.0920
     22 C          63.5871   83.8221   13.8142 C.ar    1  UNL1        0.0204
     23 C          63.4357   85.2924   13.5586 C.ar    1  UNL1        0.0312
     24 C          63.1614   85.7879   12.1697 C.ar    1  UNL1        0.1454
     25 F          63.0100   87.2582   11.9141 F       1  UNL1       -0.2040
     26 C          63.0385   84.8131   11.0363 C.ar    1  UNL1        0.0951
     27 C          63.1900   83.3428   11.2919 C.ar    1  UNL1        0.1598
     28 F          63.0671   82.3680   10.1584 F       1  UNL1       -0.2026
     29 N          63.6157   81.3770   12.9363 N.pl3   1  UNL1       -0.2166
     30 H          64.4767   80.9330   12.7611 H       1  UNL1        0.1734
     31 S          62.4552   80.5832   13.4589 S.O2    1  UNL1        0.0540
     32 O          62.4831   79.7303   12.2253 O.2     1  UNL1       -0.1545
     33 O          62.4273   81.4361   14.6925 O.2     1  UNL1       -0.1545
     34 C          61.2947   79.7895   13.9816 C.3     1  UNL1        0.1724
     35 C          58.7629   79.6225   14.5407 C.3     1  UNL1        0.0019
     36 C          59.9592   80.4468   14.1670 C.3     1  UNL1        0.0273
@<TRIPOS>BOND
     1    35    36    1
     2    36    34    1
     3    34    31    1
     4    31    32    2
     5    31    33    2
     6    31    29    1
     7    29    21    1
     8    21    22   ar
     9    22    23   ar
    10    23    24   ar
    11    24    25    1
    12    24    26   ar
    13    26     1    1
    14     1     2    2
    15     1     3    1
    16     3     4   ar
    17     4     5   ar
    18     5     6   ar
    19     6     7   ar
    20     7     8   ar
    21     8     9   ar
    22     9    13    1
    23    13    14   ar
    24    14    15   ar
    25    15    16   ar
    26    16    19    1
    27    19    20    1
    28    16    17   ar
    29    17    18   ar
    30     9    10   ar
    31    10    11   ar
    32    26    27   ar
    33    27    28    1
    34    27    21   ar
    35    11     3   ar
    36    11     6    1
    37    18    13   ar
    38    29    30    1
    39     7    12    1
