@<TRIPOS>MOLECULE
*****
 31 34 0 0 0
SMALL
GASTEIGER

@<TRIPOS>ATOM
      1 C          63.3004   89.2995   16.2973 C.ar    1  UNL1        0.1940
      2 N          63.2152   90.6281   16.9883 N.ar    1  UNL1       -0.1221
      3 N          63.9498   91.6335   16.1520 N.ar    1  UNL1       -0.1281
      4 C          64.4889   90.9262   14.9440 C.ar    1  UNL1        0.1698
      5 N          64.0875   89.4838   15.0338 N.ar    1  UNL1       -0.2829
      6 C          65.2890   91.5517   13.8400 C.ar    1  UNL1        0.0694
      7 C          64.7694   91.9474   12.4897 C.ar    1  UNL1        0.0464
      8 C          65.9084   92.5315   11.7077 C.ar    1  UNL1        0.1792
      9 O          67.1319   92.4968   12.5747 O.2     1  UNL1       -0.4546
     10 C          66.7491   91.8913   13.8925 C.ar    1  UNL1        0.1263
     11 C          67.6655   91.6650   15.0583 C.3     1  UNL1        0.0726
     12 S          62.7032   88.0126   16.7842 S.3     1  UNL1       -0.0658
     13 C          63.4979   86.7425   16.7125 C.3     1  UNL1        0.1501
     14 N          64.0263   84.9569   14.9007 N.am    1  UNL1       -0.2832
     15 C          63.0467   85.6248   15.8196 C.2     1  UNL1        0.2376
     16 O          61.6160   85.1750   15.8457 O.2     1  UNL1       -0.2738
     17 H          64.9653   85.2521   14.8836 H       1  UNL1        0.1549
     18 C          61.1093   80.7310   14.1048 C.3     1  UNL1        0.0311
     19 C          62.1166   81.7262   13.6099 C.ar    1  UNL1       -0.0209
     20 C          62.6727   81.6037   12.2222 C.ar    1  UNL1       -0.0084
     21 C          63.6799   82.5990   11.7273 C.ar    1  UNL1       -0.0209
     22 C          64.2360   82.4765   10.3396 C.3     1  UNL1        0.0311
     23 C          64.1311   83.7167   12.6201 C.ar    1  UNL1        0.0104
     24 C          63.5751   83.8391   14.0078 C.ar    1  UNL1        0.0497
     25 C          62.5678   82.8439   14.5027 C.ar    1  UNL1        0.0104
     26 C          64.4157   88.4135   14.0355 C.3     1  UNL1        0.1738
     27 C          63.5074   88.1748   12.8659 C.ar    1  UNL1        0.1459
     28 C          62.9494   89.2268   11.9538 C.ar    1  UNL1        0.0382
     29 C          62.0946   88.5444   10.9273 C.ar    1  UNL1        0.0435
     30 C          62.1243   87.0707   11.2050 C.ar    1  UNL1        0.1792
     31 O          62.9974   86.8423   12.4031 O.2     1  UNL1       -0.4527
@<TRIPOS>BOND
     1    18    19    1
     2    19    20   ar
     3    20    21   ar
     4    21    22    1
     5    21    23   ar
     6    23    24   ar
     7    24    14    1
     8    14    15   am
     9    15    16    2
    10    15    13    1
    11    13    12    1
    12    12     1    1
    13     1     2   ar
    14     2     3   ar
    15     3     4   ar
    16     4     6    1
    17     6     7   ar
    18     7     8   ar
    19     8     9   ar
    20     9    10   ar
    21    10    11    1
    22     4     5   ar
    23     5    26    1
    24    26    27    1
    25    27    28   ar
    26    28    29   ar
    27    29    30   ar
    28    30    31   ar
    29    24    25   ar
    30    25    19   ar
    31     5     1   ar
    32    31    27   ar
    33    10     6   ar
    34    14    17    1
@<TRIPOS>MOLECULE
*****
 31 34 0 0 0
SMALL
GASTEIGER

@<TRIPOS>ATOM
      1 C          63.2999   89.3237   16.2855 C.ar    1  UNL1        0.1940
      2 N          63.2177   90.6533   16.9751 N.ar    1  UNL1       -0.1221
      3 N          63.9542   91.6562   16.1375 N.ar    1  UNL1       -0.1281
      4 C          64.4917   90.9465   14.9302 C.ar    1  UNL1        0.1698
      5 N          64.0872   89.5049   15.0217 N.ar    1  UNL1       -0.2829
      6 C          65.2929   91.5690   13.8254 C.ar    1  UNL1        0.0694
      7 C          64.7740   91.9639   12.4746 C.ar    1  UNL1        0.0464
      8 C          65.9140   92.5449   11.6918 C.ar    1  UNL1        0.1792
      9 O          67.1375   92.5090   12.5589 O.2     1  UNL1       -0.4546
     10 C          66.7536   91.9059   13.8775 C.ar    1  UNL1        0.1263
     11 C          67.6696   91.6794   15.0435 C.3     1  UNL1        0.0726
     12 S          62.7000   88.0386   16.7740 S.3     1  UNL1       -0.0658
     13 C          63.4949   86.7682   16.7106 C.3     1  UNL1        0.1501
     14 N          64.0236   84.9834   14.8981 N.am    1  UNL1       -0.2832
     15 C          63.0456   85.6458   15.8226 C.2     1  UNL1        0.2376
     16 O          61.6184   85.1859   15.8592 O.2     1  UNL1       -0.2738
     17 H          64.9604   85.2852   14.8741 H       1  UNL1        0.1549
     18 C          64.2487   82.4751   10.3530 C.3     1  UNL1        0.0311
     19 C          63.6869   82.6069   11.7376 C.ar    1  UNL1       -0.0209
     20 C          62.6758   81.6164   12.2341 C.ar    1  UNL1       -0.0084
     21 C          62.1140   81.7482   13.6187 C.ar    1  UNL1       -0.0209
     22 C          61.1029   80.7576   14.1152 C.3     1  UNL1        0.0311
     23 C          62.5633   82.8705   14.5067 C.ar    1  UNL1        0.0104
     24 C          63.5743   83.8610   14.0101 C.ar    1  UNL1        0.0497
     25 C          64.1361   83.7292   12.6255 C.ar    1  UNL1        0.0104
     26 C          64.4130   88.4328   14.0245 C.3     1  UNL1        0.1738
     27 C          63.5027   88.1931   12.8567 C.ar    1  UNL1        0.1459
     28 C          62.9333   89.2455   11.9521 C.ar    1  UNL1        0.0382
     29 C          62.0806   88.5618   10.9248 C.ar    1  UNL1        0.0435
     30 C          62.1230   87.0868   11.1945 C.ar    1  UNL1        0.1792
     31 O          63.0019   86.8590   12.3884 O.2     1  UNL1       -0.4527
@<TRIPOS>BOND
     1    18    19    1
     2    19    20   ar
     3    20    21   ar
     4    21    22    1
     5    21    23   ar
     6    23    24   ar
     7    24    14    1
     8    14    15   am
     9    15    16    2
    10    15    13    1
    11    13    12    1
    12    12     1    1
    13     1     2   ar
    14     2     3   ar
    15     3     4   ar
    16     4     6    1
    17     6     7   ar
    18     7     8   ar
    19     8     9   ar
    20     9    10   ar
    21    10    11    1
    22     4     5   ar
    23     5    26    1
    24    26    27    1
    25    27    28   ar
    26    28    29   ar
    27    29    30   ar
    28    30    31   ar
    29    24    25   ar
    30    25    19   ar
    31     5     1   ar
    32    31    27   ar
    33    10     6   ar
    34    14    17    1
@<TRIPOS>MOLECULE
*****
 31 34 0 0 0
SMALL
GASTEIGER

@<TRIPOS>ATOM
      1 C          63.1415   87.8435   12.4866 C.ar    1  UNL1        0.1940
      2 N          62.3190   87.5711   11.2621 N.ar    1  UNL1       -0.1221
      3 N          62.1602   86.0853   11.1314 N.ar    1  UNL1       -0.1281
      4 C          62.8846   85.4393   12.2751 C.ar    1  UNL1        0.1698
      5 N          63.4911   86.5260   13.1127 N.ar    1  UNL1       -0.2829
      6 C          62.9848   83.9655   12.5356 C.ar    1  UNL1        0.0694
      7 C          62.5271   83.2561   13.7754 C.ar    1  UNL1        0.0464
      8 C          62.8198   81.7945   13.6080 C.ar    1  UNL1        0.1792
      9 O          63.4585   81.6006   12.2647 O.2     1  UNL1       -0.4546
     10 C          63.5604   82.9423   11.6019 C.ar    1  UNL1        0.1263
     11 C          64.1368   83.2133   10.2439 C.3     1  UNL1        0.0726
     12 S          63.5439   89.1958   12.9956 S.3     1  UNL1       -0.0658
     13 C          62.9805   90.4335   12.3626 C.3     1  UNL1        0.1501
     14 N          65.0529   91.9811   12.1174 N.am    1  UNL1       -0.2832
     15 C          63.8563   91.3072   11.5142 C.2     1  UNL1        0.2376
     16 O          63.5354   91.5070   10.0626 O.2     1  UNL1       -0.2738
     17 H          65.2636   91.8500   13.0701 H       1  UNL1        0.1549
     18 C          68.8642   92.4933    8.6228 C.3     1  UNL1        0.0311
     19 C          67.8343   93.1109    9.5217 C.ar    1  UNL1       -0.0209
     20 C          67.6803   94.6021    9.5723 C.ar    1  UNL1       -0.0084
     21 C          66.6504   95.2196   10.4712 C.ar    1  UNL1       -0.0209
     22 C          66.4964   96.7109   10.5218 C.3     1  UNL1        0.0311
     23 C          65.7747   94.3460   11.3196 C.ar    1  UNL1        0.0104
     24 C          65.9287   92.8548   11.2690 C.ar    1  UNL1        0.0497
     25 C          66.9586   92.2373   10.3701 C.ar    1  UNL1        0.0104
     26 C          64.3043   86.3295   14.3577 C.3     1  UNL1        0.1738
     27 C          63.7154   86.6574   15.6977 C.ar    1  UNL1        0.1459
     28 C          63.3043   85.6668   16.7464 C.ar    1  UNL1        0.0382
     29 C          62.7690   86.4307   17.9211 C.ar    1  UNL1        0.0435
     30 C          62.8493   87.8934   17.5984 C.ar    1  UNL1        0.1792
     31 O          63.4342   88.0334   16.2243 O.2     1  UNL1       -0.4527
@<TRIPOS>BOND
     1    18    19    1
     2    19    20   ar
     3    20    21   ar
     4    21    22    1
     5    21    23   ar
     6    23    24   ar
     7    24    14    1
     8    14    15   am
     9    15    16    2
    10    15    13    1
    11    13    12    1
    12    12     1    1
    13     1     2   ar
    14     2     3   ar
    15     3     4   ar
    16     4     6    1
    17     6     7   ar
    18     7     8   ar
    19     8     9   ar
    20     9    10   ar
    21    10    11    1
    22     4     5   ar
    23     5    26    1
    24    26    27    1
    25    27    28   ar
    26    28    29   ar
    27    29    30   ar
    28    30    31   ar
    29    24    25   ar
    30    25    19   ar
    31     5     1   ar
    32    31    27   ar
    33    10     6   ar
    34    14    17    1
@<TRIPOS>MOLECULE
*****
 31 34 0 0 0
SMALL
GASTEIGER

@<TRIPOS>ATOM
      1 C          62.6646   90.5068   11.7448 C.ar    1  UNL1        0.1940
      2 N          63.3422   91.0652   10.5286 N.ar    1  UNL1       -0.1221
      3 N          64.6059   91.7412   10.9714 N.ar    1  UNL1       -0.1281
      4 C          64.7092   91.6005   12.4613 C.ar    1  UNL1        0.1698
      5 N          63.5094   90.8376   12.9392 N.ar    1  UNL1       -0.2829
      6 C          65.8178   92.1299   13.3221 C.ar    1  UNL1        0.0694
      7 C          66.4197   91.4377   14.5090 C.ar    1  UNL1        0.0464
      8 C          67.4930   92.3244   15.0675 C.ar    1  UNL1        0.1792
      9 O          67.5543   93.5645   14.2259 O.2     1  UNL1       -0.4546
     10 C          66.5190   93.4442   13.1472 C.ar    1  UNL1        0.1263
     11 C          66.2349   94.4601   12.0808 C.3     1  UNL1        0.0726
     12 S          61.3694   89.7503   11.7632 S.3     1  UNL1       -0.0658
     13 C          61.0447   88.7922   10.6557 C.3     1  UNL1        0.1501
     14 N          62.3341   86.8824   11.8558 N.am    1  UNL1       -0.2832
     15 C          61.3578   87.3334   10.8101 C.2     1  UNL1        0.2376
     16 O          60.6944   86.3255    9.9189 O.2     1  UNL1       -0.2738
     17 H          62.7694   87.5439   12.4407 H       1  UNL1        0.1549
     18 C          64.2355   82.4570    9.9062 C.3     1  UNL1        0.0311
     19 C          63.5978   83.2109   11.0354 C.ar    1  UNL1       -0.0209
     20 C          63.2732   82.5059   12.3190 C.ar    1  UNL1       -0.0084
     21 C          62.6355   83.2598   13.4482 C.ar    1  UNL1       -0.0209
     22 C          62.3108   82.5547   14.7318 C.3     1  UNL1        0.0311
     23 C          62.3225   84.7186   13.2938 C.ar    1  UNL1        0.0104
     24 C          62.6471   85.4235   12.0102 C.ar    1  UNL1        0.0497
     25 C          63.2848   84.6697   10.8810 C.ar    1  UNL1        0.0104
     26 C          63.2075   90.4701   14.3618 C.3     1  UNL1        0.1738
     27 C          63.5401   89.0981   14.8687 C.ar    1  UNL1        0.1459
     28 C          64.4420   88.1049   14.1977 C.ar    1  UNL1        0.0382
     29 C          64.4885   86.8714   15.0499 C.ar    1  UNL1        0.0435
     30 C          63.6154   87.1022   16.2476 C.ar    1  UNL1        0.1792
     31 O          63.0293   88.4784   16.1355 O.2     1  UNL1       -0.4527
@<TRIPOS>BOND
     1    18    19    1
     2    19    20   ar
     3    20    21   ar
     4    21    22    1
     5    21    23   ar
     6    23    24   ar
     7    24    14    1
     8    14    15   am
     9    15    16    2
    10    15    13    1
    11    13    12    1
    12    12     1    1
    13     1     2   ar
    14     2     3   ar
    15     3     4   ar
    16     4     6    1
    17     6     7   ar
    18     7     8   ar
    19     8     9   ar
    20     9    10   ar
    21    10    11    1
    22     4     5   ar
    23     5    26    1
    24    26    27    1
    25    27    28   ar
    26    28    29   ar
    27    29    30   ar
    28    30    31   ar
    29    24    25   ar
    30    25    19   ar
    31     5     1   ar
    32    31    27   ar
    33    10     6   ar
    34    14    17    1
@<TRIPOS>MOLECULE
*****
 31 34 0 0 0
SMALL
GASTEIGER

@<TRIPOS>ATOM
      1 C          62.8005   87.9536   12.2230 C.ar    1  UNL1        0.1940
      2 N          63.8640   87.8518   13.2759 N.ar    1  UNL1       -0.1221
      3 N          63.9885   86.4102   13.6712 N.ar    1  UNL1       -0.1281
      4 C          63.0018   85.6210   12.8626 C.ar    1  UNL1        0.1698
      5 N          62.2676   86.5749   11.9675 N.ar    1  UNL1       -0.2829
      6 C          62.7871   84.1383   12.9361 C.ar    1  UNL1        0.0694
      7 C          62.8440   83.1809   11.7828 C.ar    1  UNL1        0.0464
      8 C          62.5699   81.8036   12.3098 C.ar    1  UNL1        0.1792
      9 O          62.3435   81.9097   13.7888 O.2     1  UNL1       -0.4546
     10 C          62.4777   83.3526   14.1758 C.ar    1  UNL1        0.1263
     11 C          62.3288   83.9118   15.5597 C.3     1  UNL1        0.0726
     12 S          62.3491   89.2130   11.5446 S.3     1  UNL1       -0.0658
     13 C          62.7872   90.5472   12.0717 C.3     1  UNL1        0.1501
     14 N          64.9381   91.9965   11.9194 N.am    1  UNL1       -0.2832
     15 C          63.7254   91.3993   11.2693 C.2     1  UNL1        0.2376
     16 O          63.4508   91.6542    9.8169 O.2     1  UNL1       -0.2738
     17 H          65.1183   91.8292   12.8727 H       1  UNL1        0.1549
     18 C          66.5269   96.6868   10.3456 C.3     1  UNL1        0.0311
     19 C          66.6706   95.1938   10.3302 C.ar    1  UNL1       -0.0209
     20 C          67.7525   94.5529    9.5124 C.ar    1  UNL1       -0.0084
     21 C          67.8963   93.0599    9.4970 C.ar    1  UNL1       -0.0209
     22 C          68.9783   92.4190    8.6792 C.3     1  UNL1        0.0311
     23 C          66.9582   92.2078   10.2993 C.ar    1  UNL1        0.0104
     24 C          65.8763   92.8486   11.1170 C.ar    1  UNL1        0.0497
     25 C          65.7325   94.3417   11.1325 C.ar    1  UNL1        0.0104
     26 C          61.1899   86.2135   10.9889 C.3     1  UNL1        0.1738
     27 C          61.5499   85.8338    9.5832 C.ar    1  UNL1        0.1459
     28 C          62.8994   85.3808    9.1103 C.ar    1  UNL1        0.0382
     29 C          62.8071   85.1074    7.6384 C.ar    1  UNL1        0.0435
     30 C          61.4006   85.3913    7.2014 C.ar    1  UNL1        0.1792
     31 O          60.6236   85.8403    8.4034 O.2     1  UNL1       -0.4527
@<TRIPOS>BOND
     1    18    19    1
     2    19    20   ar
     3    20    21   ar
     4    21    22    1
     5    21    23   ar
     6    23    24   ar
     7    24    14    1
     8    14    15   am
     9    15    16    2
    10    15    13    1
    11    13    12    1
    12    12     1    1
    13     1     2   ar
    14     2     3   ar
    15     3     4   ar
    16     4     6    1
    17     6     7   ar
    18     7     8   ar
    19     8     9   ar
    20     9    10   ar
    21    10    11    1
    22     4     5   ar
    23     5    26    1
    24    26    27    1
    25    27    28   ar
    26    28    29   ar
    27    29    30   ar
    28    30    31   ar
    29    24    25   ar
    30    25    19   ar
    31     5     1   ar
    32    31    27   ar
    33    10     6   ar
    34    14    17    1
@<TRIPOS>MOLECULE
*****
 31 34 0 0 0
SMALL
GASTEIGER

@<TRIPOS>ATOM
      1 C          64.2126   90.4383   13.8685 C.ar    1  UNL1        0.1940
      2 N          63.5028   91.3535   12.9153 N.ar    1  UNL1       -0.1221
      3 N          62.7589   90.5062   11.9260 N.ar    1  UNL1       -0.1281
      4 C          63.0090   89.0672   12.2679 C.ar    1  UNL1        0.1698
      5 N          63.9073   89.0252   13.4683 N.ar    1  UNL1       -0.2829
      6 C          62.4574   87.8788   11.5374 C.ar    1  UNL1        0.0694
      7 C          62.6440   86.4416   11.9242 C.ar    1  UNL1        0.0464
      8 C          61.9243   85.5935   10.9178 C.ar    1  UNL1        0.1792
      9 O          61.2930   86.5066    9.9090 O.2     1  UNL1       -0.4546
     10 C          61.6225   87.9189   10.2920 C.ar    1  UNL1        0.1263
     11 C          61.1925   89.1545    9.5582 C.3     1  UNL1        0.0726
     12 S          65.0759   90.8617   15.0196 S.3     1  UNL1       -0.0658
     13 C          65.7762   92.1877   14.9839 C.3     1  UNL1        0.1501
     14 N          65.7689   93.1546   12.5725 N.am    1  UNL1       -0.2832
     15 C          66.5196   92.6103   13.7515 C.2     1  UNL1        0.2376
     16 O          68.0137   92.4886   13.6981 O.2     1  UNL1       -0.2738
     17 H          64.7883   93.2345   12.6075 H       1  UNL1        0.1549
     18 C          67.1358   96.8530    9.1882 C.3     1  UNL1        0.0311
     19 C          67.1957   95.4265    9.6479 C.ar    1  UNL1       -0.0209
     20 C          67.9989   94.4226    8.8753 C.ar    1  UNL1       -0.0084
     21 C          68.0589   92.9961    9.3351 C.ar    1  UNL1       -0.0209
     22 C          68.8622   91.9922    8.5624 C.3     1  UNL1        0.0311
     23 C          67.3155   92.5734   10.5674 C.ar    1  UNL1        0.0104
     24 C          66.5123   93.5773   11.3400 C.ar    1  UNL1        0.0497
     25 C          66.4523   95.0038   10.8803 C.ar    1  UNL1        0.0104
     26 C          64.4119   87.7875   14.1491 C.3     1  UNL1        0.1738
     27 C          63.8008   87.3420   15.4445 C.ar    1  UNL1        0.1459
     28 C          63.7762   85.9376   15.9709 C.ar    1  UNL1        0.0382
     29 C          63.0672   85.9504   17.2927 C.ar    1  UNL1        0.0435
     30 C          62.6536   87.3627   17.5833 C.ar    1  UNL1        0.1792
     31 O          63.1070   88.2227   16.4410 O.2     1  UNL1       -0.4527
@<TRIPOS>BOND
     1    18    19    1
     2    19    20   ar
     3    20    21   ar
     4    21    22    1
     5    21    23   ar
     6    23    24   ar
     7    24    14    1
     8    14    15   am
     9    15    16    2
    10    15    13    1
    11    13    12    1
    12    12     1    1
    13     1     2   ar
    14     2     3   ar
    15     3     4   ar
    16     4     6    1
    17     6     7   ar
    18     7     8   ar
    19     8     9   ar
    20     9    10   ar
    21    10    11    1
    22     4     5   ar
    23     5    26    1
    24    26    27    1
    25    27    28   ar
    26    28    29   ar
    27    29    30   ar
    28    30    31   ar
    29    24    25   ar
    30    25    19   ar
    31     5     1   ar
    32    31    27   ar
    33    10     6   ar
    34    14    17    1
@<TRIPOS>MOLECULE
*****
 31 34 0 0 0
SMALL
GASTEIGER

@<TRIPOS>ATOM
      1 C          63.9155   90.8256   12.6660 C.ar    1  UNL1        0.1940
      2 N          63.5391   90.5670   11.2372 N.ar    1  UNL1       -0.1221
      3 N          64.2595   91.5652   10.3800 N.ar    1  UNL1       -0.1281
      4 C          65.0811   92.4408   11.2792 C.ar    1  UNL1        0.1698
      5 N          64.8685   91.9837   12.6919 N.ar    1  UNL1       -0.2829
      6 C          65.9609   93.5744   10.8422 C.ar    1  UNL1        0.0694
      7 C          65.6901   95.0340   11.0571 C.ar    1  UNL1        0.0464
      8 C          66.8277   95.8091   10.4613 C.ar    1  UNL1        0.1792
      9 O          67.8017   94.8285    9.8783 O.2     1  UNL1       -0.4546
     10 C          67.2659   93.4474   10.1137 C.ar    1  UNL1        0.1263
     11 C          67.9203   92.1645    9.6942 C.3     1  UNL1        0.0726
     12 S          63.4250   90.0606   13.8593 S.3     1  UNL1       -0.0658
     13 C          64.0865   88.7716   14.2475 C.3     1  UNL1        0.1501
     14 N          63.9986   86.1751   14.2260 N.am    1  UNL1       -0.2832
     15 C          63.6844   87.4908   13.5780 C.2     1  UNL1        0.2376
     16 O          62.9682   87.5260   12.2605 O.2     1  UNL1       -0.2738
     17 H          64.4687   86.1520   15.0907 H       1  UNL1        0.1549
     18 C          61.5440   81.5976   14.3742 C.3     1  UNL1        0.0311
     19 C          62.3692   82.6056   13.6306 C.ar    1  UNL1       -0.0209
     20 C          62.7924   82.3330   12.2177 C.ar    1  UNL1       -0.0084
     21 C          63.6177   83.3410   11.4741 C.ar    1  UNL1       -0.0209
     22 C          64.0408   83.0682   10.0611 C.3     1  UNL1        0.0311
     23 C          64.0197   84.6216   12.1435 C.ar    1  UNL1        0.0104
     24 C          63.5965   84.8943   13.5565 C.ar    1  UNL1        0.0497
     25 C          62.7713   83.8863   14.3000 C.ar    1  UNL1        0.0104
     26 C          65.4983   92.5800   13.9157 C.3     1  UNL1        0.1738
     27 C          66.9802   92.4757   14.1231 C.ar    1  UNL1        0.1459
     28 C          67.7399   92.9676   15.3193 C.ar    1  UNL1        0.0382
     29 C          69.1918   92.6571   15.1062 C.ar    1  UNL1        0.0435
     30 C          69.3295   91.9731   13.7784 C.ar    1  UNL1        0.1792
     31 O          67.9627   91.8610   13.1708 O.2     1  UNL1       -0.4527
@<TRIPOS>BOND
     1    18    19    1
     2    19    20   ar
     3    20    21   ar
     4    21    22    1
     5    21    23   ar
     6    23    24   ar
     7    24    14    1
     8    14    15   am
     9    15    16    2
    10    15    13    1
    11    13    12    1
    12    12     1    1
    13     1     2   ar
    14     2     3   ar
    15     3     4   ar
    16     4     6    1
    17     6     7   ar
    18     7     8   ar
    19     8     9   ar
    20     9    10   ar
    21    10    11    1
    22     4     5   ar
    23     5    26    1
    24    26    27    1
    25    27    28   ar
    26    28    29   ar
    27    29    30   ar
    28    30    31   ar
    29    24    25   ar
    30    25    19   ar
    31     5     1   ar
    32    31    27   ar
    33    10     6   ar
    34    14    17    1
@<TRIPOS>MOLECULE
*****
 31 34 0 0 0
SMALL
GASTEIGER

@<TRIPOS>ATOM
      1 C          64.2964   90.9673   13.3153 C.ar    1  UNL1        0.1940
      2 N          65.0376   91.6883   14.4019 N.ar    1  UNL1       -0.1221
      3 N          65.7956   92.8201   13.7738 N.ar    1  UNL1       -0.1281
      4 C          65.5228   92.7985   12.2989 C.ar    1  UNL1        0.1698
      5 N          64.5963   91.6534   12.0156 N.ar    1  UNL1       -0.2829
      6 C          66.0790   93.7542   11.2853 C.ar    1  UNL1        0.0694
      7 C          65.6821   95.1909   11.1174 C.ar    1  UNL1        0.0464
      8 C          66.4875   95.7656    9.9900 C.ar    1  UNL1        0.1792
      9 O          67.3822   94.6840    9.4611 O.2     1  UNL1       -0.4546
     10 C          67.1297   93.4409   10.2617 C.ar    1  UNL1        0.1263
     11 C          67.8088   92.1170   10.0719 C.3     1  UNL1        0.0726
     12 S          63.4108   89.7703   13.4965 S.3     1  UNL1       -0.0658
     13 C          63.9794   88.4917   14.0368 C.3     1  UNL1        0.1501
     14 N          63.9609   85.8944   14.0988 N.am    1  UNL1       -0.2832
     15 C          63.5973   87.1801   13.4172 C.2     1  UNL1        0.2376
     16 O          62.8516   87.1543   12.1159 O.2     1  UNL1       -0.2738
     17 H          64.4503   85.9113   14.9529 H       1  UNL1        0.1549
     18 C          64.2605   82.5231   10.1561 C.3     1  UNL1        0.0311
     19 C          63.7287   82.8972   11.5078 C.ar    1  UNL1       -0.0209
     20 C          62.8148   81.9598   12.2399 C.ar    1  UNL1       -0.0084
     21 C          62.2829   82.3339   13.5917 C.ar    1  UNL1       -0.0209
     22 C          61.3689   81.3964   14.3238 C.3     1  UNL1        0.0311
     23 C          62.6649   83.6454   14.2113 C.ar    1  UNL1        0.0104
     24 C          63.5788   84.5828   13.4792 C.ar    1  UNL1        0.0497
     25 C          64.1107   84.2087   12.1275 C.ar    1  UNL1        0.0104
     26 C          64.0633   91.2629   10.6689 C.3     1  UNL1        0.1738
     27 C          62.6996   90.6493   10.5512 C.ar    1  UNL1        0.1459
     28 C          62.3537   89.4109    9.7787 C.ar    1  UNL1        0.0382
     29 C          60.8828   89.1626    9.9354 C.ar    1  UNL1        0.0435
     30 C          60.3195   90.2475   10.8047 C.ar    1  UNL1        0.1792
     31 O          61.4424   91.1664   11.1852 O.2     1  UNL1       -0.4527
@<TRIPOS>BOND
     1    18    19    1
     2    19    20   ar
     3    20    21   ar
     4    21    22    1
     5    21    23   ar
     6    23    24   ar
     7    24    14    1
     8    14    15   am
     9    15    16    2
    10    15    13    1
    11    13    12    1
    12    12     1    1
    13     1     2   ar
    14     2     3   ar
    15     3     4   ar
    16     4     6    1
    17     6     7   ar
    18     7     8   ar
    19     8     9   ar
    20     9    10   ar
    21    10    11    1
    22     4     5   ar
    23     5    26    1
    24    26    27    1
    25    27    28   ar
    26    28    29   ar
    27    29    30   ar
    28    30    31   ar
    29    24    25   ar
    30    25    19   ar
    31     5     1   ar
    32    31    27   ar
    33    10     6   ar
    34    14    17    1
@<TRIPOS>MOLECULE
*****
 31 34 0 0 0
SMALL
GASTEIGER

@<TRIPOS>ATOM
      1 C          63.0263   90.5671   12.2514 C.ar    1  UNL1        0.1940
      2 N          63.7851   91.2360   11.1438 N.ar    1  UNL1       -0.1221
      3 N          65.0174   91.8549   11.7340 N.ar    1  UNL1       -0.1281
      4 C          65.0201   91.5685   13.2064 C.ar    1  UNL1        0.1698
      5 N          63.7896   90.7726   13.5262 N.ar    1  UNL1       -0.2829
      6 C          66.0693   92.0019   14.1870 C.ar    1  UNL1        0.0694
      7 C          65.8230   92.4885   15.5843 C.ar    1  UNL1        0.0464
      8 C          67.1504   92.8122   16.2032 C.ar    1  UNL1        0.1792
      9 O          68.2172   92.5256   15.1884 O.2     1  UNL1       -0.4546
     10 C          67.5490   92.0248   13.9423 C.ar    1  UNL1        0.1263
     11 C          68.2394   91.6184   12.6742 C.3     1  UNL1        0.0726
     12 S          61.7315   89.8233   12.1092 S.3     1  UNL1       -0.0658
     13 C          61.5005   88.9406   10.9187 C.3     1  UNL1        0.1501
     14 N          62.7102   86.8718   11.9222 N.am    1  UNL1       -0.2832
     15 C          61.6364   87.4525   11.0506 C.2     1  UNL1        0.2376
     16 O          60.6985   86.5452   10.3109 O.2     1  UNL1       -0.2738
     17 H          63.3258   87.4673   12.4077 H       1  UNL1        0.1549
     18 C          62.1034   82.5270   14.7069 C.3     1  UNL1        0.0311
     19 C          62.5427   83.2114   13.4465 C.ar    1  UNL1       -0.0209
     20 C          63.1179   82.4079   12.3181 C.ar    1  UNL1       -0.0084
     21 C          63.5572   83.0923   11.0577 C.ar    1  UNL1       -0.0209
     22 C          64.1324   82.2886    9.9292 C.3     1  UNL1        0.0311
     23 C          63.4213   84.5802   10.9257 C.ar    1  UNL1        0.0104
     24 C          62.8461   85.3838   12.0542 C.ar    1  UNL1        0.0497
     25 C          62.4068   84.6994   13.3146 C.ar    1  UNL1        0.0104
     26 C          63.3922   90.2704   14.8826 C.3     1  UNL1        0.1738
     27 C          63.6379   88.8379   15.2536 C.ar    1  UNL1        0.1459
     28 C          64.5208   87.8751   14.5162 C.ar    1  UNL1        0.0382
     29 C          64.4725   86.5589   15.2340 C.ar    1  UNL1        0.0435
     30 C          63.5598   86.7082   16.4150 C.ar    1  UNL1        0.1792
     31 O          63.0440   88.1167   16.4270 O.2     1  UNL1       -0.4527
@<TRIPOS>BOND
     1    18    19    1
     2    19    20   ar
     3    20    21   ar
     4    21    22    1
     5    21    23   ar
     6    23    24   ar
     7    24    14    1
     8    14    15   am
     9    15    16    2
    10    15    13    1
    11    13    12    1
    12    12     1    1
    13     1     2   ar
    14     2     3   ar
    15     3     4   ar
    16     4     6    1
    17     6     7   ar
    18     7     8   ar
    19     8     9   ar
    20     9    10   ar
    21    10    11    1
    22     4     5   ar
    23     5    26    1
    24    26    27    1
    25    27    28   ar
    26    28    29   ar
    27    29    30   ar
    28    30    31   ar
    29    24    25   ar
    30    25    19   ar
    31     5     1   ar
    32    31    27   ar
    33    10     6   ar
    34    14    17    1
