@<TRIPOS>MOLECULE
*****
 23 25 0 0 0
SMALL
GASTEIGER

@<TRIPOS>ATOM
      1 C          62.8142   83.0604   13.9144 C.3     1  UNL1        0.1154
      2 C          63.8322   81.4695   13.2343 C.3     1  UNL1        0.0335
      3 C          63.3485   82.7167   12.5556 C.3     1  UNL1        0.1377
      4 C          62.7531   84.0357   12.1610 C.3     1  UNL1        0.0613
      5 C          63.0205   84.2466   10.7001 C.3     1  UNL1        0.1290
      6 C          63.3610   84.3184    9.2411 C.3     1  UNL1        0.0305
      7 C          62.9414   85.5089    8.4308 C.3     1  UNL1        0.0025
      8 C          62.1813   86.6276    9.0796 C.3     1  UNL1        0.0002
      9 C          61.8408   86.5557   10.5386 C.3     1  UNL1        0.0025
     10 C          62.2604   85.3652   11.3489 C.3     1  UNL1        0.0305
     11 O          63.7812   83.0578   10.1919 O.3     1  UNL1       -0.2256
     12 O          63.9839   82.1123   11.3386 O.3     1  UNL1       -0.2251
     13 C          63.5256   84.0691   14.7669 C.2     1  UNL1        0.2252
     14 O          65.0151   84.2163   14.6694 O.2     1  UNL1       -0.2750
     15 N          62.7472   84.9305   15.7168 N.am    1  UNL1       -0.3004
     16 H          61.7696   84.8338   15.7807 H       1  UNL1        0.1497
     17 C          63.4586   85.9391   16.5692 C.3     1  UNL1        0.1164
     18 C          63.5976   87.3559   16.0966 C.ar    1  UNL1        0.0005
     19 C          63.0589   88.4808   16.9299 C.ar    1  UNL1        0.0181
     20 C          63.1979   89.8976   16.4572 C.ar    1  UNL1        0.0986
     21 N          63.8756   90.1894   15.1512 N.ar    1  UNL1       -0.2423
     22 C          64.4142   89.0646   14.3180 C.ar    1  UNL1        0.0986
     23 C          64.2753   87.6477   14.7906 C.ar    1  UNL1        0.0181
@<TRIPOS>BOND
     1     2     3    1
     2     3     1    1
     3     1    13    1
     4    13    14    2
     5    13    15   am
     6    15    17    1
     7    17    18    1
     8    18    19   ar
     9    19    20   ar
    10    20    21   ar
    11    21    22   ar
    12    22    23   ar
    13     3     4    1
    14     4     5    1
    15     5     6    1
    16     6     7    1
    17     7     8    1
    18     8     9    1
    19     9    10    1
    20     5    11    1
    21    11    12    1
    22    12     3    1
    23    23    18   ar
    24    10     5    1
    25    15    16    1
@<TRIPOS>MOLECULE
*****
 23 25 0 0 0
SMALL
GASTEIGER

@<TRIPOS>ATOM
      1 C          64.6279   86.2759   14.9209 C.3     1  UNL1        0.1154
      2 C          63.4584   85.9957   16.5282 C.3     1  UNL1        0.0335
      3 C          63.6291   85.2101   15.2618 C.3     1  UNL1        0.1377
      4 C          64.0086   84.6473   13.9242 C.3     1  UNL1        0.0613
      5 C          63.2086   83.3978   13.7031 C.3     1  UNL1        0.1290
      6 C          62.3441   82.1746   13.6228 C.3     1  UNL1        0.0305
      7 C          62.4070   81.2899   12.4131 C.3     1  UNL1        0.0025
      8 C          63.3343   81.6284   11.2838 C.3     1  UNL1        0.0002
      9 C          64.1988   82.8515   11.3641 C.3     1  UNL1        0.0025
     10 C          64.1359   83.7362   12.5738 C.3     1  UNL1        0.0305
     11 O          62.3346   83.1884   14.9041 O.3     1  UNL1       -0.2256
     12 O          62.5945   84.3084   15.8675 O.3     1  UNL1       -0.2251
     13 C          64.1768   87.5395   14.2501 C.2     1  UNL1        0.2252
     14 O          63.4289   87.4736   12.9516 O.2     1  UNL1       -0.2750
     15 N          64.4736   88.8691   14.8780 N.am    1  UNL1       -0.3004
     16 H          64.9645   88.9124   15.7303 H       1  UNL1        0.1497
     17 C          64.0225   90.1327   14.2073 C.3     1  UNL1        0.1164
     18 C          65.0349   91.1338   13.7351 C.ar    1  UNL1        0.0005
     19 C          64.7785   91.9295   12.4897 C.ar    1  UNL1        0.0181
     20 C          65.7908   92.9306   12.0175 C.ar    1  UNL1        0.0986
     21 N          67.0596   93.1360   12.7909 N.ar    1  UNL1       -0.2423
     22 C          67.3160   92.3403   14.0362 C.ar    1  UNL1        0.0986
     23 C          66.3036   91.3392   14.5084 C.ar    1  UNL1        0.0181
@<TRIPOS>BOND
     1     2     3    1
     2     3     1    1
     3     1    13    1
     4    13    14    2
     5    13    15   am
     6    15    17    1
     7    17    18    1
     8    18    19   ar
     9    19    20   ar
    10    20    21   ar
    11    21    22   ar
    12    22    23   ar
    13     3     4    1
    14     4     5    1
    15     5     6    1
    16     6     7    1
    17     7     8    1
    18     8     9    1
    19     9    10    1
    20     5    11    1
    21    11    12    1
    22    12     3    1
    23    23    18   ar
    24    10     5    1
    25    15    16    1
@<TRIPOS>MOLECULE
*****
 23 25 0 0 0
SMALL
GASTEIGER

@<TRIPOS>ATOM
      1 C          64.6737   86.2983   14.9598 C.3     1  UNL1        0.1154
      2 C          63.4477   86.0308   16.5266 C.3     1  UNL1        0.0335
      3 C          63.6435   85.2505   15.2605 C.3     1  UNL1        0.1377
      4 C          64.0546   84.6893   13.9316 C.3     1  UNL1        0.0613
      5 C          63.2374   83.4576   13.6757 C.3     1  UNL1        0.1290
      6 C          62.3519   82.2527   13.5586 C.3     1  UNL1        0.0305
      7 C          62.4361   81.3751   12.3451 C.3     1  UNL1        0.0025
      8 C          63.4059   81.7026   11.2486 C.3     1  UNL1        0.0002
      9 C          64.2915   82.9076   11.3657 C.3     1  UNL1        0.0025
     10 C          64.2072   83.7851   12.5792 C.3     1  UNL1        0.0305
     11 O          62.3213   83.2577   14.8465 O.3     1  UNL1       -0.2256
     12 O          62.5722   84.3658   15.8260 O.3     1  UNL1       -0.2251
     13 C          64.2614   87.5974   14.3330 C.2     1  UNL1        0.2252
     14 O          64.5826   88.8942   15.0148 O.2     1  UNL1       -0.2750
     15 N          63.5280   87.5993   13.0245 N.am    1  UNL1       -0.3004
     16 H          63.3172   86.7481   12.5770 H       1  UNL1        0.1497
     17 C          63.1157   88.8983   12.3978 C.3     1  UNL1        0.1164
     18 C          62.1055   88.9088   11.2891 C.ar    1  UNL1        0.0005
     19 C          62.0161   87.7468   10.3448 C.ar    1  UNL1        0.0181
     20 C          61.0059   87.7574    9.2361 C.ar    1  UNL1        0.0986
     21 N          60.0850   88.9299    9.0717 N.ar    1  UNL1       -0.2423
     22 C          60.1743   90.0919   10.0159 C.ar    1  UNL1        0.0986
     23 C          61.1846   90.0814   11.1247 C.ar    1  UNL1        0.0181
@<TRIPOS>BOND
     1     2     3    1
     2     3     1    1
     3     1    13    1
     4    13    14    2
     5    13    15   am
     6    15    17    1
     7    17    18    1
     8    18    19   ar
     9    19    20   ar
    10    20    21   ar
    11    21    22   ar
    12    22    23   ar
    13     3     4    1
    14     4     5    1
    15     5     6    1
    16     6     7    1
    17     7     8    1
    18     8     9    1
    19     9    10    1
    20     5    11    1
    21    11    12    1
    22    12     3    1
    23    23    18   ar
    24    10     5    1
    25    15    16    1
@<TRIPOS>MOLECULE
*****
 23 25 0 0 0
SMALL
GASTEIGER

@<TRIPOS>ATOM
      1 C          64.4360   84.8698   14.2142 C.3     1  UNL1        0.1154
      2 C          63.3392   84.0330   15.6725 C.3     1  UNL1        0.0335
      3 C          63.6852   85.4610   15.3704 C.3     1  UNL1        0.1377
      4 C          64.1882   86.7653   14.8265 C.3     1  UNL1        0.0613
      5 C          63.6759   87.8642   15.7098 C.3     1  UNL1        0.1290
      6 C          63.0938   88.8510   16.6780 C.3     1  UNL1        0.0305
      7 C          63.3552   90.3175   16.5024 C.3     1  UNL1        0.0025
      8 C          64.1987   90.7973   15.3586 C.3     1  UNL1        0.0002
      9 C          64.7808   89.8106   14.3904 C.3     1  UNL1        0.0025
     10 C          64.5194   88.3440   14.5660 C.3     1  UNL1        0.0305
     11 O          62.8564   87.2390   16.7996 O.3     1  UNL1       -0.2256
     12 O          62.8621   85.7536   16.5898 O.3     1  UNL1       -0.2251
     13 C          63.7505   84.6793   12.8935 C.2     1  UNL1        0.2252
     14 O          64.1804   83.5715   11.9783 O.2     1  UNL1       -0.2750
     15 N          62.6351   85.5968   12.4883 N.am    1  UNL1       -0.3004
     16 H          62.3529   86.3239   13.0890 H       1  UNL1        0.1497
     17 C          61.9497   85.4063   11.1677 C.3     1  UNL1        0.1164
     18 C          61.4794   86.5983   10.3880 C.ar    1  UNL1        0.0005
     19 C          60.5155   86.4192    9.2527 C.ar    1  UNL1        0.0181
     20 C          60.0452   87.6111    8.4729 C.ar    1  UNL1        0.0986
     21 N          60.5388   88.9822    8.8285 N.ar    1  UNL1       -0.2423
     22 C          61.5025   89.1614    9.9638 C.ar    1  UNL1        0.0986
     23 C          61.9729   87.9694   10.7436 C.ar    1  UNL1        0.0181
@<TRIPOS>BOND
     1     2     3    1
     2     3     1    1
     3     1    13    1
     4    13    14    2
     5    13    15   am
     6    15    17    1
     7    17    18    1
     8    18    19   ar
     9    19    20   ar
    10    20    21   ar
    11    21    22   ar
    12    22    23   ar
    13     3     4    1
    14     4     5    1
    15     5     6    1
    16     6     7    1
    17     7     8    1
    18     8     9    1
    19     9    10    1
    20     5    11    1
    21    11    12    1
    22    12     3    1
    23    23    18   ar
    24    10     5    1
    25    15    16    1
@<TRIPOS>MOLECULE
*****
 23 25 0 0 0
SMALL
GASTEIGER

@<TRIPOS>ATOM
      1 C          60.1615   87.7433   10.4417 C.3     1  UNL1        0.1154
      2 C          60.1514   87.7667    8.4344 C.3     1  UNL1        0.0335
      3 C          60.9114   86.9350    9.4247 C.3     1  UNL1        0.1377
      4 C          61.5147   86.2723   10.6275 C.3     1  UNL1        0.0613
      5 C          62.4786   85.2282   10.1470 C.3     1  UNL1        0.1290
      6 C          63.4036   84.2273    9.5205 C.3     1  UNL1        0.0305
      7 C          64.2300   83.3244   10.3876 C.3     1  UNL1        0.0025
      8 C          64.1313   83.4224   11.8811 C.3     1  UNL1        0.0002
      9 C          63.2063   84.4233   12.5076 C.3     1  UNL1        0.0025
     10 C          62.3799   85.3262   11.6405 C.3     1  UNL1        0.0305
     11 O          62.4711   85.2457    8.6471 O.3     1  UNL1       -0.2256
     12 O          61.5024   86.3006    8.2006 O.3     1  UNL1       -0.2251
     13 C          60.7386   89.0314   10.9495 C.2     1  UNL1        0.2252
     14 O          59.9699   89.8605   11.9352 O.2     1  UNL1       -0.2750
     15 N          62.0843   89.4904   10.4715 N.am    1  UNL1       -0.3004
     16 H          62.5888   88.9462    9.8245 H       1  UNL1        0.1497
     17 C          62.6613   90.7785   10.9793 C.3     1  UNL1        0.1164
     18 C          63.6124   90.7686   12.1391 C.ar    1  UNL1        0.0005
     19 C          63.5292   89.6803   13.1680 C.ar    1  UNL1        0.0181
     20 C          64.4804   89.6703   14.3278 C.ar    1  UNL1        0.0986
     21 N          65.5148   90.7487   14.4587 N.ar    1  UNL1       -0.2423
     22 C          65.5980   91.8370   13.4299 C.ar    1  UNL1        0.0986
     23 C          64.6468   91.8470   12.2700 C.ar    1  UNL1        0.0181
@<TRIPOS>BOND
     1     2     3    1
     2     3     1    1
     3     1    13    1
     4    13    14    2
     5    13    15   am
     6    15    17    1
     7    17    18    1
     8    18    19   ar
     9    19    20   ar
    10    20    21   ar
    11    21    22   ar
    12    22    23   ar
    13     3     4    1
    14     4     5    1
    15     5     6    1
    16     6     7    1
    17     7     8    1
    18     8     9    1
    19     9    10    1
    20     5    11    1
    21    11    12    1
    22    12     3    1
    23    23    18   ar
    24    10     5    1
    25    15    16    1
@<TRIPOS>MOLECULE
*****
 23 25 0 0 0
SMALL
GASTEIGER

@<TRIPOS>ATOM
      1 C          62.7922   82.8214   12.4339 C.3     1  UNL1        0.1154
      2 C          64.0094   82.0150   11.0563 C.3     1  UNL1        0.0335
      3 C          63.2197   83.2902   11.0748 C.3     1  UNL1        0.1377
      4 C          62.3406   84.4673   11.3774 C.3     1  UNL1        0.0613
      5 C          62.3899   85.3971   10.2013 C.3     1  UNL1        0.1290
      6 C          62.5372   86.2240    8.9585 C.3     1  UNL1        0.0305
      7 C          61.8054   87.5274    8.8338 C.3     1  UNL1        0.0025
      8 C          60.9263   88.0039    9.9519 C.3     1  UNL1        0.0002
      9 C          60.7790   87.1771   11.1947 C.3     1  UNL1        0.0025
     10 C          61.5108   85.8737   11.3194 C.3     1  UNL1        0.0305
     11 O          63.2994   84.7946    9.1718 O.3     1  UNL1       -0.2256
     12 O          63.8123   83.4924    9.7117 O.3     1  UNL1       -0.2251
     13 C          63.3556   83.4713   13.6629 C.2     1  UNL1        0.2252
     14 O          62.8197   83.1083   15.0160 O.2     1  UNL1       -0.2750
     15 N          64.4551   84.4842   13.5387 N.am    1  UNL1       -0.3004
     16 H          64.8069   84.7224   12.6506 H       1  UNL1        0.1497
     17 C          65.0185   85.1340   14.7676 C.3     1  UNL1        0.1164
     18 C          64.3235   86.3154   15.3769 C.ar    1  UNL1        0.0005
     19 C          64.4495   87.6689   14.7428 C.ar    1  UNL1        0.0181
     20 C          63.7545   88.8503   15.3521 C.ar    1  UNL1        0.0986
     21 N          62.9334   88.6781   16.5956 N.ar    1  UNL1       -0.2423
     22 C          62.8073   87.3247   17.2297 C.ar    1  UNL1        0.0986
     23 C          63.5024   86.1432   16.6204 C.ar    1  UNL1        0.0181
@<TRIPOS>BOND
     1     2     3    1
     2     3     1    1
     3     1    13    1
     4    13    14    2
     5    13    15   am
     6    15    17    1
     7    17    18    1
     8    18    19   ar
     9    19    20   ar
    10    20    21   ar
    11    21    22   ar
    12    22    23   ar
    13     3     4    1
    14     4     5    1
    15     5     6    1
    16     6     7    1
    17     7     8    1
    18     8     9    1
    19     9    10    1
    20     5    11    1
    21    11    12    1
    22    12     3    1
    23    23    18   ar
    24    10     5    1
    25    15    16    1
@<TRIPOS>MOLECULE
*****
 23 25 0 0 0
SMALL
GASTEIGER

@<TRIPOS>ATOM
      1 C          64.6769   83.1265   12.6754 C.3     1  UNL1        0.1154
      2 C          63.5911   81.5652   13.3181 C.3     1  UNL1        0.0335
      3 C          63.7341   82.9675   13.8311 C.3     1  UNL1        0.1377
      4 C          64.0742   84.4030   14.1025 C.3     1  UNL1        0.0613
      5 C          63.3116   84.8381   15.3188 C.3     1  UNL1        0.1290
      6 C          62.4900   85.1278   16.5398 C.3     1  UNL1        0.0305
      7 C          62.5315   86.4902   17.1658 C.3     1  UNL1        0.0025
      8 C          63.3946   87.5630   16.5708 C.3     1  UNL1        0.0002
      9 C          64.2163   87.2734   15.3498 C.3     1  UNL1        0.0025
     10 C          64.1747   85.9109   14.7237 C.3     1  UNL1        0.0305
     11 O          62.5002   83.6714   15.7991 O.3     1  UNL1       -0.2256
     12 O          62.7613   82.5153   14.8796 O.3     1  UNL1       -0.2251
     13 C          64.1440   83.4584   11.3130 C.2     1  UNL1        0.2252
     14 O          64.6026   82.6771   10.1176 O.2     1  UNL1       -0.2750
     15 N          63.1525   84.5716   11.1462 N.am    1  UNL1       -0.3004
     16 H          62.8515   85.0844   11.9308 H       1  UNL1        0.1497
     17 C          62.6197   84.9034    9.7839 C.3     1  UNL1        0.1164
     18 C          61.8393   86.1666    9.5710 C.ar    1  UNL1        0.0005
     19 C          60.7621   86.2161    8.5283 C.ar    1  UNL1        0.0181
     20 C          59.9817   87.4793    8.3155 C.ar    1  UNL1        0.0986
     21 N          60.2786   88.6931    9.1453 N.ar    1  UNL1       -0.2423
     22 C          61.3558   88.6437   10.1878 C.ar    1  UNL1        0.0986
     23 C          62.1362   87.3804   10.4008 C.ar    1  UNL1        0.0181
@<TRIPOS>BOND
     1     2     3    1
     2     3     1    1
     3     1    13    1
     4    13    14    2
     5    13    15   am
     6    15    17    1
     7    17    18    1
     8    18    19   ar
     9    19    20   ar
    10    20    21   ar
    11    21    22   ar
    12    22    23   ar
    13     3     4    1
    14     4     5    1
    15     5     6    1
    16     6     7    1
    17     7     8    1
    18     8     9    1
    19     9    10    1
    20     5    11    1
    21    11    12    1
    22    12     3    1
    23    23    18   ar
    24    10     5    1
    25    15    16    1
@<TRIPOS>MOLECULE
*****
 23 25 0 0 0
SMALL
GASTEIGER

@<TRIPOS>ATOM
      1 C          60.9529   88.5489   11.2545 C.3     1  UNL1        0.1154
      2 C          60.8991   89.5780    9.5318 C.3     1  UNL1        0.0335
      3 C          61.7777   89.6922   10.7422 C.3     1  UNL1        0.1377
      4 C          62.4838   89.5674   12.0596 C.3     1  UNL1        0.0613
      5 C          63.5615   90.6097   12.1085 C.3     1  UNL1        0.1290
      6 C          64.5921   91.6954   12.0140 C.3     1  UNL1        0.0305
      7 C          65.5429   91.9279   13.1506 C.3     1  UNL1        0.0025
      8 C          65.4631   91.0747   14.3817 C.3     1  UNL1        0.0002
      9 C          64.4324   89.9890   14.4763 C.3     1  UNL1        0.0025
     10 C          63.4816   89.7565   13.3397 C.3     1  UNL1        0.0305
     11 O          63.5213   91.3787   10.8213 O.3     1  UNL1       -0.2256
     12 O          62.4188   90.8116    9.9767 O.3     1  UNL1       -0.2251
     13 C          61.2985   87.1417   10.8664 C.2     1  UNL1        0.2252
     14 O          60.7177   86.5434    9.6196 O.2     1  UNL1       -0.2750
     15 N          62.2250   86.3329   11.7253 N.am    1  UNL1       -0.3004
     16 H          62.6062   86.7256   12.5436 H       1  UNL1        0.1497
     17 C          62.5706   84.9258   11.3372 C.3     1  UNL1        0.1164
     18 C          62.6737   83.8615   12.3891 C.ar    1  UNL1        0.0005
     19 C          62.7241   84.2425   13.8391 C.ar    1  UNL1        0.0181
     20 C          62.8273   83.1782   14.8910 C.ar    1  UNL1        0.0986
     21 N          62.8799   81.7329   14.4930 N.ar    1  UNL1       -0.2423
     22 C          62.8295   81.3519   13.0432 C.ar    1  UNL1        0.0986
     23 C          62.7264   82.4162   11.9911 C.ar    1  UNL1        0.0181
@<TRIPOS>BOND
     1     2     3    1
     2     3     1    1
     3     1    13    1
     4    13    14    2
     5    13    15   am
     6    15    17    1
     7    17    18    1
     8    18    19   ar
     9    19    20   ar
    10    20    21   ar
    11    21    22   ar
    12    22    23   ar
    13     3     4    1
    14     4     5    1
    15     5     6    1
    16     6     7    1
    17     7     8    1
    18     8     9    1
    19     9    10    1
    20     5    11    1
    21    11    12    1
    22    12     3    1
    23    23    18   ar
    24    10     5    1
    25    15    16    1
@<TRIPOS>MOLECULE
*****
 23 25 0 0 0
SMALL
GASTEIGER

@<TRIPOS>ATOM
      1 C          61.6340   87.8509   11.3701 C.3     1  UNL1        0.1154
      2 C          61.8760   88.2880    9.4259 C.3     1  UNL1        0.0335
      3 C          62.1699   87.0502   10.2205 C.3     1  UNL1        0.1377
      4 C          62.3518   85.9798   11.2554 C.3     1  UNL1        0.0613
      5 C          62.9388   84.7762   10.5793 C.3     1  UNL1        0.1290
      6 C          63.5224   83.6561    9.7702 C.3     1  UNL1        0.0305
      7 C          63.8678   82.3546   10.4309 C.3     1  UNL1        0.0025
      8 C          63.6296   82.1731   11.9007 C.3     1  UNL1        0.0002
      9 C          63.0460   83.2932   12.7098 C.3     1  UNL1        0.0025
     10 C          62.7006   84.5948   12.0491 C.3     1  UNL1        0.0305
     11 O          63.1196   85.1029    9.1265 O.3     1  UNL1       -0.2256
     12 O          62.6444   86.5083    8.9047 O.3     1  UNL1       -0.2251
     13 C          62.5745   88.6112   12.2575 C.2     1  UNL1        0.2252
     14 O          63.6635   87.8869   12.9918 O.2     1  UNL1       -0.2750
     15 N          62.4259   90.0961   12.4105 N.am    1  UNL1       -0.3004
     16 H          61.7111   90.5715   11.9285 H       1  UNL1        0.1497
     17 C          63.3664   90.8564   13.2978 C.3     1  UNL1        0.1164
     18 C          64.5479   91.5658   12.7056 C.ar    1  UNL1        0.0005
     19 C          65.7266   91.9083   13.5677 C.ar    1  UNL1        0.0181
     20 C          66.9081   92.6176   12.9754 C.ar    1  UNL1        0.0986
     21 N          66.9109   92.9845   11.5210 N.ar    1  UNL1       -0.2423
     22 C          65.7323   92.6420   10.6589 C.ar    1  UNL1        0.0986
     23 C          64.5507   91.9326   11.2511 C.ar    1  UNL1        0.0181
@<TRIPOS>BOND
     1     2     3    1
     2     3     1    1
     3     1    13    1
     4    13    14    2
     5    13    15   am
     6    15    17    1
     7    17    18    1
     8    18    19   ar
     9    19    20   ar
    10    20    21   ar
    11    21    22   ar
    12    22    23   ar
    13     3     4    1
    14     4     5    1
    15     5     6    1
    16     6     7    1
    17     7     8    1
    18     8     9    1
    19     9    10    1
    20     5    11    1
    21    11    12    1
    22    12     3    1
    23    23    18   ar
    24    10     5    1
    25    15    16    1
