@<TRIPOS>MOLECULE
*****
 32 36 0 0 0
SMALL
GASTEIGER

@<TRIPOS>ATOM
      1 C          66.3593   93.1151   14.0162 C.ar    1  UNL1        0.2278
      2 N          66.9031   94.3804   13.4218 N.ar    1  UNL1       -0.2100
      3 C          66.4957   94.7951   12.0391 C.ar    1  UNL1        0.1035
      4 C          65.5445   93.9446   11.2506 C.ar    1  UNL1        0.0381
      5 C          65.0007   92.6793   11.8450 C.ar    1  UNL1        0.0676
      6 C          65.4080   92.2646   13.2277 C.ar    1  UNL1        0.0881
      7 C          64.7130   90.9746   13.5484 C.ar    1  UNL1        0.1074
      8 N          64.7340   90.0988   14.7660 N.ar    1  UNL1       -0.2222
      9 C          63.9181   88.8406   14.7991 C.ar    1  UNL1        0.2001
     10 N          63.0812   88.4580   13.6146 N.ar    1  UNL1       -0.2075
     11 C          63.0601   89.3338   12.3969 C.ar    1  UNL1        0.1509
     12 C          63.8760   90.5920   12.3639 C.ar    1  UNL1        0.1101
     13 N          64.0538   91.6456   11.3111 N.ar    1  UNL1       -0.3216
     14 C          63.3996   91.6626    9.9614 C.3     1  UNL1        0.1306
     15 N          62.2231   88.9512   11.2124 N.pl3   1  UNL1       -0.2892
     16 C          62.5745   87.7357   10.4070 C.3     1  UNL1        0.1095
     17 C          61.7375   87.3532    9.2224 C.3     1  UNL1        0.0939
     18 N          60.5491   88.1862    8.8433 N.3     1  UNL1       -0.2695
     19 C          60.1977   89.4019    9.6489 C.3     1  UNL1        0.0939
     20 C          61.0347   89.7843   10.8333 C.3     1  UNL1        0.1095
     21 C          59.7121   87.8037    7.6588 C.3     1  UNL1        0.0769
     22 C          58.6089   88.7087    7.1963 C.3     1  UNL1        0.0437
     23 C          58.9010   89.8084    6.2189 C.ar    1  UNL1       -0.0184
     24 C          57.7931   90.6975    5.7372 C.ar    1  UNL1       -0.0018
     25 C          58.0853   91.7973    4.7598 C.ar    1  UNL1        0.0316
     26 C          59.4853   92.0079    4.2642 C.ar    1  UNL1        0.1674
     27 F          59.7774   93.1076    3.2868 F       1  UNL1       -0.2018
     28 C          60.5932   91.1188    4.7460 C.ar    1  UNL1        0.1671
     29 F          61.9932   91.3294    4.2504 F       1  UNL1       -0.2018
     30 C          60.3010   90.0191    5.7233 C.ar    1  UNL1        0.0277
     31 C          68.0647   91.9802   15.6141 C.3     1  UNL1        0.2542
     32 O          66.7667   92.7004   15.3989 O.3     1  UNL1       -0.4561
@<TRIPOS>BOND
     1    31    32    1
     2    32     1    1
     3     1     2   ar
     4     2     3   ar
     5     3     4   ar
     6     4     5   ar
     7     5     6   ar
     8     6     7   ar
     9     7     8   ar
    10     8     9   ar
    11     9    10   ar
    12    10    11   ar
    13    11    15    1
    14    15    16    1
    15    16    17    1
    16    17    18    1
    17    18    21    1
    18    21    22    1
    19    22    23    1
    20    23    24   ar
    21    24    25   ar
    22    25    26   ar
    23    26    27    1
    24    26    28   ar
    25    28    29    1
    26    28    30   ar
    27    18    19    1
    28    19    20    1
    29    11    12   ar
    30    12    13   ar
    31    13    14    1
    32     6     1   ar
    33    12     7   ar
    34    13     5   ar
    35    20    15    1
    36    30    23   ar
@<TRIPOS>MOLECULE
*****
 32 36 0 0 0
SMALL
GASTEIGER

@<TRIPOS>ATOM
      1 C          71.8967   70.2361   14.3094 C.ar    1  UNL1        0.2278
      2 N          72.7319   69.3081   13.4780 N.ar    1  UNL1       -0.2100
      3 C          73.5958   69.8561   12.3810 C.ar    1  UNL1        0.1035
      4 C          73.6244   71.3320   12.1153 C.ar    1  UNL1        0.0381
      5 C          72.7892   72.2600   12.9467 C.ar    1  UNL1        0.0676
      6 C          71.9254   71.7120   14.0437 C.ar    1  UNL1        0.0881
      7 C          71.2156   72.8628   14.6934 C.ar    1  UNL1        0.1074
      8 N          70.2370   72.9267   15.8284 N.ar    1  UNL1       -0.2222
      9 C          69.6836   74.2498   16.2679 C.ar    1  UNL1        0.2001
     10 N          70.1087   75.5090   15.5724 N.ar    1  UNL1       -0.2075
     11 C          71.0873   75.4450   14.4373 C.ar    1  UNL1        0.1509
     12 C          71.6407   74.1219   13.9978 C.ar    1  UNL1        0.1101
     13 N          72.6132   73.7494   12.9183 N.ar    1  UNL1       -0.3216
     14 C          73.2909   74.6994   11.9759 C.3     1  UNL1        0.1306
     15 N          71.5124   76.7042   13.7418 N.pl3   1  UNL1       -0.2892
     16 C          70.9834   77.0209   12.3744 C.3     1  UNL1        0.1095
     17 C          71.4086   78.2801   11.6789 C.3     1  UNL1        0.0939
     18 N          72.3627   79.2226   12.3509 N.3     1  UNL1       -0.2695
     19 C          72.8916   78.9059   13.7183 C.3     1  UNL1        0.0939
     20 C          72.4665   77.6467   14.4137 C.3     1  UNL1        0.1095
     21 C          72.7878   80.4818   11.6553 C.3     1  UNL1        0.0769
     22 C          73.5856   80.4055   10.3873 C.3     1  UNL1        0.0437
     23 C          72.9193   80.6510    9.0661 C.ar    1  UNL1       -0.0184
     24 C          72.4967   82.0390    8.6857 C.ar    1  UNL1       -0.0018
     25 C          71.8303   82.2845    7.3643 C.ar    1  UNL1        0.0316
     26 C          71.5866   81.1419    6.4235 C.ar    1  UNL1        0.1674
     27 F          70.9203   81.3875    5.1023 F       1  UNL1       -0.2018
     28 C          72.0092   79.7539    6.8040 C.ar    1  UNL1        0.1671
     29 F          71.7655   78.6113    5.8631 F       1  UNL1       -0.2018
     30 C          72.6755   79.5084    8.1252 C.ar    1  UNL1        0.0277
     31 C          71.4914   69.7671   16.8324 C.3     1  UNL1        0.2542
     32 O          71.0329   69.6881   15.4065 O.3     1  UNL1       -0.4561
@<TRIPOS>BOND
     1    31    32    1
     2    32     1    1
     3     1     2   ar
     4     2     3   ar
     5     3     4   ar
     6     4     5   ar
     7     5     6   ar
     8     6     7   ar
     9     7     8   ar
    10     8     9   ar
    11     9    10   ar
    12    10    11   ar
    13    11    15    1
    14    15    16    1
    15    16    17    1
    16    17    18    1
    17    18    21    1
    18    21    22    1
    19    22    23    1
    20    23    24   ar
    21    24    25   ar
    22    25    26   ar
    23    26    27    1
    24    26    28   ar
    25    28    29    1
    26    28    30   ar
    27    18    19    1
    28    19    20    1
    29    11    12   ar
    30    12    13   ar
    31    13    14    1
    32     6     1   ar
    33    12     7   ar
    34    13     5   ar
    35    20    15    1
    36    30    23   ar
@<TRIPOS>MOLECULE
*****
 32 36 0 0 0
SMALL
GASTEIGER

@<TRIPOS>ATOM
      1 C          66.4641   93.7003   13.7411 C.ar    1  UNL1        0.2278
      2 N          67.1270   94.7381   12.8847 N.ar    1  UNL1       -0.2100
      3 C          66.7544   94.8658   11.4373 C.ar    1  UNL1        0.1035
      4 C          65.7189   93.9556   10.8463 C.ar    1  UNL1        0.0381
      5 C          65.0559   92.9178   11.7027 C.ar    1  UNL1        0.0676
      6 C          65.4285   92.7902   13.1501 C.ar    1  UNL1        0.0881
      7 C          64.6110   91.6811   13.7431 C.ar    1  UNL1        0.1074
      8 N          64.5525   91.1070   15.1276 N.ar    1  UNL1       -0.2222
      9 C          63.6162   89.9751   15.4313 C.ar    1  UNL1        0.2001
     10 N          62.7383   89.4174   14.3504 N.ar    1  UNL1       -0.2075
     11 C          62.7968   89.9914   12.9659 C.ar    1  UNL1        0.1509
     12 C          63.7332   91.1233   12.6622 C.ar    1  UNL1        0.1101
     13 N          64.0081   91.8877   11.4012 N.ar    1  UNL1       -0.3216
     14 C          63.3508   91.6616   10.0720 C.3     1  UNL1        0.1306
     15 N          61.9190   89.4337   11.8850 N.pl3   1  UNL1       -0.2892
     16 C          60.4273   89.4658   12.0391 C.3     1  UNL1        0.1095
     17 C          59.5495   88.9080   10.9582 C.3     1  UNL1        0.0939
     18 N          60.1634   88.3181    9.7233 N.3     1  UNL1       -0.2695
     19 C          61.6551   88.2859    9.5692 C.3     1  UNL1        0.0939
     20 C          62.5329   88.8437   10.6500 C.3     1  UNL1        0.1095
     21 C          59.2855   87.7603    8.6424 C.3     1  UNL1        0.0769
     22 C          59.6628   86.4815    7.9550 C.3     1  UNL1        0.0437
     23 C          60.8989   85.7417    8.3730 C.ar    1  UNL1       -0.0184
     24 C          61.8805   85.2767    7.3386 C.ar    1  UNL1       -0.0018
     25 C          63.1166   84.5368    7.7567 C.ar    1  UNL1        0.0316
     26 C          63.3710   84.2621    9.2092 C.ar    1  UNL1        0.1674
     27 F          64.6071   83.5223    9.6272 F       1  UNL1       -0.2018
     28 C          62.3894   84.7271   10.2437 C.ar    1  UNL1        0.1671
     29 F          62.6438   84.4524   11.6961 F       1  UNL1       -0.2018
     30 C          61.1534   85.4669    9.8256 C.ar    1  UNL1        0.0277
     31 C          68.2724   93.6902   15.6065 C.3     1  UNL1        0.2542
     32 O          66.8367   93.5726   15.1884 O.3     1  UNL1       -0.4561
@<TRIPOS>BOND
     1    31    32    1
     2    32     1    1
     3     1     2   ar
     4     2     3   ar
     5     3     4   ar
     6     4     5   ar
     7     5     6   ar
     8     6     7   ar
     9     7     8   ar
    10     8     9   ar
    11     9    10   ar
    12    10    11   ar
    13    11    15    1
    14    15    16    1
    15    16    17    1
    16    17    18    1
    17    18    21    1
    18    21    22    1
    19    22    23    1
    20    23    24   ar
    21    24    25   ar
    22    25    26   ar
    23    26    27    1
    24    26    28   ar
    25    28    29    1
    26    28    30   ar
    27    18    19    1
    28    19    20    1
    29    11    12   ar
    30    12    13   ar
    31    13    14    1
    32     6     1   ar
    33    12     7   ar
    34    13     5   ar
    35    20    15    1
    36    30    23   ar
@<TRIPOS>MOLECULE
*****
 32 36 0 0 0
SMALL
GASTEIGER

@<TRIPOS>ATOM
      1 C          59.7512   87.0662    7.7636 C.ar    1  UNL1        0.2278
      2 N          59.0535   87.9775    6.7978 N.ar    1  UNL1       -0.2100
      3 C          59.1896   89.4648    6.9380 C.ar    1  UNL1        0.1035
      4 C          60.0234   90.0407    8.0438 C.ar    1  UNL1        0.0381
      5 C          60.7212   89.1294    9.0095 C.ar    1  UNL1        0.0676
      6 C          60.5851   87.6422    8.8694 C.ar    1  UNL1        0.0881
      7 C          61.3840   86.9985    9.9636 C.ar    1  UNL1        0.1074
      8 N          61.6193   85.5611   10.3221 N.ar    1  UNL1       -0.2222
      9 C          62.4845   85.2131   11.4970 C.ar    1  UNL1        0.2001
     10 N          63.1144   86.3024   12.3134 N.ar    1  UNL1       -0.2075
     11 C          62.8791   87.7398   11.9549 C.ar    1  UNL1        0.1509
     12 C          62.0139   88.0878   10.7800 C.ar    1  UNL1        0.1101
     13 N          61.6042   89.4048   10.1904 N.ar    1  UNL1       -0.3216
     14 C          62.0069   90.7594   10.6932 C.3     1  UNL1        0.1306
     15 N          63.5090   88.8291   12.7713 N.pl3   1  UNL1       -0.2892
     16 C          63.5157   90.2399   12.2618 C.3     1  UNL1        0.1095
     17 C          64.1456   91.3292   13.0783 C.3     1  UNL1        0.0939
     18 N          64.7689   91.0078   14.4042 N.3     1  UNL1       -0.2695
     19 C          64.7622   89.5970   14.9138 C.3     1  UNL1        0.0939
     20 C          64.1323   88.5077   14.0974 C.3     1  UNL1        0.1095
     21 C          65.3988   92.0971   15.2206 C.3     1  UNL1        0.0769
     22 C          66.6136   92.8120   14.7075 C.3     1  UNL1        0.0437
     23 C          66.7392   93.1230   13.2455 C.ar    1  UNL1       -0.0184
     24 C          66.2025   94.4150   12.7048 C.ar    1  UNL1       -0.0018
     25 C          66.3281   94.7260   11.2427 C.ar    1  UNL1        0.0316
     26 C          66.9904   93.7448   10.3215 C.ar    1  UNL1        0.1674
     27 F          67.1160   94.0558    8.8594 F       1  UNL1       -0.2018
     28 C          67.5271   92.4527   10.8622 C.ar    1  UNL1        0.1671
     29 F          68.1894   91.4716    9.9410 F       1  UNL1       -0.2018
     30 C          67.4015   92.1418   12.3242 C.ar    1  UNL1        0.0277
     31 C          60.6771   84.7922    6.9142 C.3     1  UNL1        0.2542
     32 O          59.6151   85.5790    7.6234 O.3     1  UNL1       -0.4561
@<TRIPOS>BOND
     1    31    32    1
     2    32     1    1
     3     1     2   ar
     4     2     3   ar
     5     3     4   ar
     6     4     5   ar
     7     5     6   ar
     8     6     7   ar
     9     7     8   ar
    10     8     9   ar
    11     9    10   ar
    12    10    11   ar
    13    11    15    1
    14    15    16    1
    15    16    17    1
    16    17    18    1
    17    18    21    1
    18    21    22    1
    19    22    23    1
    20    23    24   ar
    21    24    25   ar
    22    25    26   ar
    23    26    27    1
    24    26    28   ar
    25    28    29    1
    26    28    30   ar
    27    18    19    1
    28    19    20    1
    29    11    12   ar
    30    12    13   ar
    31    13    14    1
    32     6     1   ar
    33    12     7   ar
    34    13     5   ar
    35    20    15    1
    36    30    23   ar
@<TRIPOS>MOLECULE
*****
 32 36 0 0 0
SMALL
GASTEIGER

@<TRIPOS>ATOM
      1 C          64.4516   88.1802   14.3856 C.ar    1  UNL1        0.2278
      2 N          64.9944   89.4227   15.0269 N.ar    1  UNL1       -0.2100
      3 C          64.6860   90.7671   14.4375 C.ar    1  UNL1        0.1035
      4 C          63.8347   90.8689   13.2067 C.ar    1  UNL1        0.0381
      5 C          63.2919   89.6264   12.5653 C.ar    1  UNL1        0.0676
      6 C          63.6003   88.2820   13.1548 C.ar    1  UNL1        0.0881
      7 C          62.9301   87.2402   12.3090 C.ar    1  UNL1        0.1074
      8 N          62.8845   85.7441   12.4078 N.ar    1  UNL1       -0.2222
      9 C          62.1163   84.9486   11.3945 C.ar    1  UNL1        0.2001
     10 N          61.3936   85.6490   10.2822 N.ar    1  UNL1       -0.2075
     11 C          61.4392   87.1451   10.1834 C.ar    1  UNL1        0.1509
     12 C          62.2074   87.9406   11.1967 C.ar    1  UNL1        0.1101
     13 N          62.4310   89.4154   11.3552 N.ar    1  UNL1       -0.3216
     14 C          61.8889   90.4905   10.4606 C.3     1  UNL1        0.1306
     15 N          60.7165   87.8455    9.0711 N.pl3   1  UNL1       -0.2892
     16 C          60.5490   89.3356    9.1069 C.3     1  UNL1        0.1095
     17 C          59.8263   90.0361    7.9946 C.3     1  UNL1        0.0939
     18 N          59.2711   89.2464    6.8466 N.3     1  UNL1       -0.2695
     19 C          59.4386   87.7561    6.8108 C.3     1  UNL1        0.0939
     20 C          60.1613   87.0558    7.9230 C.3     1  UNL1        0.1095
     21 C          58.5485   89.9468    5.7343 C.3     1  UNL1        0.0769
     22 C          58.8554   91.3827    5.4277 C.3     1  UNL1        0.0437
     23 C          59.9264   91.7253    4.4349 C.ar    1  UNL1       -0.0184
     24 C          59.6489   92.7173    3.3447 C.ar    1  UNL1       -0.0018
     25 C          60.7200   93.0599    2.3519 C.ar    1  UNL1        0.0316
     26 C          62.0685   92.4103    2.4494 C.ar    1  UNL1        0.1674
     27 F          63.1395   92.7528    1.4567 F       1  UNL1       -0.2018
     28 C          62.3460   91.4181    3.5397 C.ar    1  UNL1        0.1671
     29 F          63.6945   90.7685    3.6372 F       1  UNL1       -0.2018
     30 C          61.2750   91.0756    4.5324 C.ar    1  UNL1        0.0277
     31 C          63.8537   86.2471   16.0152 C.3     1  UNL1        0.2542
     32 O          64.7601   86.8358   14.9751 O.3     1  UNL1       -0.4561
@<TRIPOS>BOND
     1    31    32    1
     2    32     1    1
     3     1     2   ar
     4     2     3   ar
     5     3     4   ar
     6     4     5   ar
     7     5     6   ar
     8     6     7   ar
     9     7     8   ar
    10     8     9   ar
    11     9    10   ar
    12    10    11   ar
    13    11    15    1
    14    15    16    1
    15    16    17    1
    16    17    18    1
    17    18    21    1
    18    21    22    1
    19    22    23    1
    20    23    24   ar
    21    24    25   ar
    22    25    26   ar
    23    26    27    1
    24    26    28   ar
    25    28    29    1
    26    28    30   ar
    27    18    19    1
    28    19    20    1
    29    11    12   ar
    30    12    13   ar
    31    13    14    1
    32     6     1   ar
    33    12     7   ar
    34    13     5   ar
    35    20    15    1
    36    30    23   ar
@<TRIPOS>MOLECULE
*****
 32 36 0 0 0
SMALL
GASTEIGER

@<TRIPOS>ATOM
      1 C          62.8303   82.2726   12.8820 C.ar    1  UNL1        0.2278
      2 N          63.3234   81.3671   13.9714 N.ar    1  UNL1       -0.2100
      3 C          64.0530   81.9401   15.1502 C.ar    1  UNL1        0.1035
      4 C          64.2894   83.4186   15.2395 C.ar    1  UNL1        0.0381
      5 C          63.7963   84.3241   14.1501 C.ar    1  UNL1        0.0676
      6 C          63.0667   83.7511   12.9714 C.ar    1  UNL1        0.0881
      7 C          62.7003   84.8832   12.0580 C.ar    1  UNL1        0.1074
      8 N          61.9736   84.9196   10.7463 N.ar    1  UNL1       -0.2222
      9 C          61.7499   86.2286   10.0489 C.ar    1  UNL1        0.2001
     10 N          62.2531   87.5012   10.6631 N.ar    1  UNL1       -0.2075
     11 C          62.9798   87.4648   11.9747 C.ar    1  UNL1        0.1509
     12 C          63.2035   86.1558   12.6722 C.ar    1  UNL1        0.1101
     13 N          63.8808   85.8103   13.9652 N.ar    1  UNL1       -0.3216
     14 C          64.5289   86.7806   14.9078 C.3     1  UNL1        0.1306
     15 N          63.4829   88.7375   12.5889 N.pl3   1  UNL1       -0.2892
     16 C          64.2115   88.7009   13.8995 C.3     1  UNL1        0.1095
     17 C          64.7146   89.9737   14.5137 C.3     1  UNL1        0.0939
     18 N          64.4891   91.2829   13.8172 N.3     1  UNL1       -0.2695
     19 C          63.7605   91.3194   12.5065 C.3     1  UNL1        0.0939
     20 C          63.2574   90.0468   11.8924 C.3     1  UNL1        0.1095
     21 C          64.9922   92.5555   14.4314 C.3     1  UNL1        0.0769
     22 C          66.3179   93.1180   14.0117 C.3     1  UNL1        0.0437
     23 C          66.5936   93.3866   12.5619 C.ar    1  UNL1       -0.0184
     24 C          66.2309   94.7129   11.9627 C.ar    1  UNL1       -0.0018
     25 C          66.5066   94.9815   10.5129 C.ar    1  UNL1        0.0316
     26 C          67.1450   93.9237    9.6623 C.ar    1  UNL1        0.1674
     27 F          67.4207   94.1923    8.2126 F       1  UNL1       -0.2018
     28 C          67.5077   92.5972   10.2616 C.ar    1  UNL1        0.1671
     29 F          68.1461   91.5394    9.4110 F       1  UNL1       -0.2018
     30 C          67.2320   92.3287   11.7113 C.ar    1  UNL1        0.0277
     31 C          62.8685   81.0605   10.5844 C.3     1  UNL1        0.2542
     32 O          62.1007   81.6996   11.7033 O.3     1  UNL1       -0.4561
@<TRIPOS>BOND
     1    31    32    1
     2    32     1    1
     3     1     2   ar
     4     2     3   ar
     5     3     4   ar
     6     4     5   ar
     7     5     6   ar
     8     6     7   ar
     9     7     8   ar
    10     8     9   ar
    11     9    10   ar
    12    10    11   ar
    13    11    15    1
    14    15    16    1
    15    16    17    1
    16    17    18    1
    17    18    21    1
    18    21    22    1
    19    22    23    1
    20    23    24   ar
    21    24    25   ar
    22    25    26   ar
    23    26    27    1
    24    26    28   ar
    25    28    29    1
    26    28    30   ar
    27    18    19    1
    28    19    20    1
    29    11    12   ar
    30    12    13   ar
    31    13    14    1
    32     6     1   ar
    33    12     7   ar
    34    13     5   ar
    35    20    15    1
    36    30    23   ar
@<TRIPOS>MOLECULE
*****
 32 36 0 0 0
SMALL
GASTEIGER

@<TRIPOS>ATOM
      1 C          55.1716   90.7144   -5.6422 C.ar    1  UNL1        0.2278
      2 N          54.5055   89.7187   -4.7397 N.ar    1  UNL1       -0.2100
      3 C          54.9231   89.6118   -3.3029 C.ar    1  UNL1        0.1035
      4 C          56.0068   90.5006   -2.7688 C.ar    1  UNL1        0.0381
      5 C          56.6730   91.4964   -3.6713 C.ar    1  UNL1        0.0676
      6 C          56.2554   91.6033   -5.1080 C.ar    1  UNL1        0.0881
      7 C          57.0872   92.6712   -5.7543 C.ar    1  UNL1        0.1074
      8 N          57.1167   93.2114   -7.1533 N.ar    1  UNL1       -0.2222
      9 C          58.0779   94.3047   -7.5150 C.ar    1  UNL1        0.2001
     10 N          59.0096   94.8579   -6.4777 N.ar    1  UNL1       -0.2075
     11 C          58.9801   94.3176   -5.0787 C.ar    1  UNL1        0.1509
     12 C          58.0189   93.2243   -4.7170 C.ar    1  UNL1        0.1101
     13 N          57.7629   92.4982   -3.4296 N.ar    1  UNL1       -0.3216
     14 C          58.4722   92.7328   -2.1289 C.3     1  UNL1        0.1306
     15 N          59.9118   94.8708   -4.0414 N.pl3   1  UNL1       -0.2892
     16 C          59.4714   96.0073   -3.1674 C.3     1  UNL1        0.1095
     17 C          60.4031   96.5605   -2.1300 C.3     1  UNL1        0.0939
     18 N          61.7753   95.9769   -1.9668 N.3     1  UNL1       -0.2695
     19 C          62.2157   94.8403   -2.8409 C.3     1  UNL1        0.0939
     20 C          61.2840   94.2872   -3.8782 C.3     1  UNL1        0.1095
     21 C          62.7070   96.5300   -0.9295 C.3     1  UNL1        0.0769
     22 C          63.7264   95.6382   -0.2850 C.3     1  UNL1        0.0437
     23 C          63.2908   94.5786    0.6833 C.ar    1  UNL1       -0.0184
     24 C          64.2884   93.5930    1.2153 C.ar    1  UNL1       -0.0018
     25 C          63.8528   92.5334    2.1837 C.ar    1  UNL1        0.0316
     26 C          62.4195   92.4596    2.6200 C.ar    1  UNL1        0.1674
     27 F          61.9840   91.4001    3.5883 F       1  UNL1       -0.2018
     28 C          61.4219   93.4453    2.0879 C.ar    1  UNL1        0.1671
     29 F          59.9886   93.3715    2.5242 F       1  UNL1       -0.2018
     30 C          61.8575   94.5048    1.1196 C.ar    1  UNL1        0.0277
     31 C          53.5328   90.0961   -7.5610 C.3     1  UNL1        0.2542
     32 O          54.7541   90.8213   -7.0790 O.3     1  UNL1       -0.4561
@<TRIPOS>BOND
     1    31    32    1
     2    32     1    1
     3     1     2   ar
     4     2     3   ar
     5     3     4   ar
     6     4     5   ar
     7     5     6   ar
     8     6     7   ar
     9     7     8   ar
    10     8     9   ar
    11     9    10   ar
    12    10    11   ar
    13    11    15    1
    14    15    16    1
    15    16    17    1
    16    17    18    1
    17    18    21    1
    18    21    22    1
    19    22    23    1
    20    23    24   ar
    21    24    25   ar
    22    25    26   ar
    23    26    27    1
    24    26    28   ar
    25    28    29    1
    26    28    30   ar
    27    18    19    1
    28    19    20    1
    29    11    12   ar
    30    12    13   ar
    31    13    14    1
    32     6     1   ar
    33    12     7   ar
    34    13     5   ar
    35    20    15    1
    36    30    23   ar
@<TRIPOS>MOLECULE
*****
 32 36 0 0 0
SMALL
GASTEIGER

@<TRIPOS>ATOM
      1 C          56.6510   92.5772   -5.5417 C.ar    1  UNL1        0.2278
      2 N          55.7143   91.7238   -4.7392 N.ar    1  UNL1       -0.2100
      3 C          56.0107   91.4360   -3.2973 C.ar    1  UNL1        0.1035
      4 C          57.2440   92.0017   -2.6578 C.ar    1  UNL1        0.0381
      5 C          58.1808   92.8552   -3.4602 C.ar    1  UNL1        0.0676
      6 C          57.8843   93.1429   -4.9022 C.ar    1  UNL1        0.0881
      7 C          58.9843   94.0112   -5.4372 C.ar    1  UNL1        0.1074
      8 N          59.2230   94.6073   -6.7928 N.ar    1  UNL1       -0.2222
      9 C          60.4381   95.4523   -7.0371 C.ar    1  UNL1        0.2001
     10 N          61.4144   95.7011   -5.9258 N.ar    1  UNL1       -0.2075
     11 C          61.1756   95.1050   -4.5703 C.ar    1  UNL1        0.1509
     12 C          59.9606   94.2600   -4.3260 C.ar    1  UNL1        0.1101
     13 N          59.4640   93.5455   -3.1041 N.ar    1  UNL1       -0.3216
     14 C          60.1331   93.5250   -1.7618 C.3     1  UNL1        0.1306
     15 N          62.1519   95.3538   -3.4590 N.pl3   1  UNL1       -0.2892
     16 C          62.0289   96.5875   -2.6148 C.3     1  UNL1        0.1095
     17 C          63.0053   96.8362   -1.5035 C.3     1  UNL1        0.0939
     18 N          64.1046   95.8513   -1.2365 N.3     1  UNL1       -0.2695
     19 C          64.2276   94.6175   -2.0807 C.3     1  UNL1        0.0939
     20 C          63.2513   94.3688   -3.1919 C.3     1  UNL1        0.1095
     21 C          65.0809   96.1001   -0.1252 C.3     1  UNL1        0.0769
     22 C          64.9435   95.3618    1.1732 C.3     1  UNL1        0.0437
     23 C          63.6663   94.6447    1.4968 C.ar    1  UNL1       -0.0184
     24 C          63.6900   93.1810    1.8233 C.ar    1  UNL1       -0.0018
     25 C          62.4127   92.4639    2.1468 C.ar    1  UNL1        0.0316
     26 C          61.1119   93.2108    2.1438 C.ar    1  UNL1        0.1674
     27 F          59.8347   92.4937    2.4673 F       1  UNL1       -0.2018
     28 C          61.0882   94.6746    1.8173 C.ar    1  UNL1        0.1671
     29 F          59.7874   95.4214    1.8142 F       1  UNL1       -0.2018
     30 C          62.3654   95.3916    1.4938 C.ar    1  UNL1        0.0277
     31 C          55.6242   94.1189   -7.3634 C.3     1  UNL1        0.2542
     32 O          56.3546   92.8650   -6.9837 O.3     1  UNL1       -0.4561
@<TRIPOS>BOND
     1    31    32    1
     2    32     1    1
     3     1     2   ar
     4     2     3   ar
     5     3     4   ar
     6     4     5   ar
     7     5     6   ar
     8     6     7   ar
     9     7     8   ar
    10     8     9   ar
    11     9    10   ar
    12    10    11   ar
    13    11    15    1
    14    15    16    1
    15    16    17    1
    16    17    18    1
    17    18    21    1
    18    21    22    1
    19    22    23    1
    20    23    24   ar
    21    24    25   ar
    22    25    26   ar
    23    26    27    1
    24    26    28   ar
    25    28    29    1
    26    28    30   ar
    27    18    19    1
    28    19    20    1
    29    11    12   ar
    30    12    13   ar
    31    13    14    1
    32     6     1   ar
    33    12     7   ar
    34    13     5   ar
    35    20    15    1
    36    30    23   ar
@<TRIPOS>MOLECULE
*****
 32 36 0 0 0
SMALL
GASTEIGER

@<TRIPOS>ATOM
      1 C          64.0927   84.2219   14.1272 C.ar    1  UNL1        0.2278
      2 N          64.0146   82.7269   14.0331 N.ar    1  UNL1       -0.2100
      3 C          63.2602   82.0847   12.9068 C.ar    1  UNL1        0.1035
      4 C          62.5841   82.9375   11.8746 C.ar    1  UNL1        0.0381
      5 C          62.6622   84.4325   11.9687 C.ar    1  UNL1        0.0676
      6 C          63.4166   85.0747   13.0950 C.ar    1  UNL1        0.0881
      7 C          63.3213   86.5623   12.9280 C.ar    1  UNL1        0.1074
      8 N          63.8699   87.7003   13.7366 N.ar    1  UNL1       -0.2222
      9 C          63.6054   89.1155   13.3157 C.ar    1  UNL1        0.2001
     10 N          62.7922   89.3928   12.0862 N.ar    1  UNL1       -0.2075
     11 C          62.2435   88.2548   11.2775 C.ar    1  UNL1        0.1509
     12 C          62.5080   86.8396   11.6984 C.ar    1  UNL1        0.1101
     13 N          62.1007   85.5233   11.1056 N.ar    1  UNL1       -0.3216
     14 C          61.2766   85.3314    9.8670 C.3     1  UNL1        0.1306
     15 N          61.4303   88.5321   10.0480 N.pl3   1  UNL1       -0.2892
     16 C          60.6413   89.8032    9.9415 C.3     1  UNL1        0.1095
     17 C          59.8280   90.0805    8.7119 C.3     1  UNL1        0.0939
     18 N          59.8039   89.0865    7.5888 N.3     1  UNL1       -0.2695
     19 C          60.5930   87.8152    7.6953 C.3     1  UNL1        0.0939
     20 C          61.4061   87.5380    8.9248 C.3     1  UNL1        0.1095
     21 C          58.9907   89.3637    6.3593 C.3     1  UNL1        0.0769
     22 C          58.7979   90.7754    5.8901 C.3     1  UNL1        0.0437
     23 C          59.7089   91.3497    4.8459 C.ar    1  UNL1       -0.0184
     24 C          59.2040   92.4072    3.9097 C.ar    1  UNL1       -0.0018
     25 C          60.1150   92.9815    2.8655 C.ar    1  UNL1        0.0316
     26 C          61.5310   92.4983    2.7577 C.ar    1  UNL1        0.1674
     27 F          62.4419   93.0726    1.7135 F       1  UNL1       -0.2018
     28 C          62.0359   91.4408    3.6940 C.ar    1  UNL1        0.1671
     29 F          63.4518   90.9575    3.5862 F       1  UNL1       -0.2018
     30 C          61.1249   90.8665    4.7381 C.ar    1  UNL1        0.0277
     31 C          64.1053   85.6005   16.3293 C.3     1  UNL1        0.2542
     32 O          64.8471   84.8641   15.2535 O.3     1  UNL1       -0.4561
@<TRIPOS>BOND
     1    31    32    1
     2    32     1    1
     3     1     2   ar
     4     2     3   ar
     5     3     4   ar
     6     4     5   ar
     7     5     6   ar
     8     6     7   ar
     9     7     8   ar
    10     8     9   ar
    11     9    10   ar
    12    10    11   ar
    13    11    15    1
    14    15    16    1
    15    16    17    1
    16    17    18    1
    17    18    21    1
    18    21    22    1
    19    22    23    1
    20    23    24   ar
    21    24    25   ar
    22    25    26   ar
    23    26    27    1
    24    26    28   ar
    25    28    29    1
    26    28    30   ar
    27    18    19    1
    28    19    20    1
    29    11    12   ar
    30    12    13   ar
    31    13    14    1
    32     6     1   ar
    33    12     7   ar
    34    13     5   ar
    35    20    15    1
    36    30    23   ar
