@<TRIPOS>MOLECULE
*****
 22 24 0 0 0
SMALL
GASTEIGER

@<TRIPOS>ATOM
      1 O          65.3022   92.3156   14.2823 O.3     1  UNL1       -0.4728
      2 C          64.6139   91.1521   13.6321 C.ar    1  UNL1        0.1387
      3 C          64.6601   89.7981   14.2759 C.ar    1  UNL1        0.0369
      4 C          63.9719   88.6347   13.6258 C.ar    1  UNL1        0.0031
      5 C          63.2374   88.8253   12.3318 C.ar    1  UNL1        0.0007
      6 C          62.5491   87.6618   11.6817 C.ar    1  UNL1        0.0067
      7 C          61.8147   87.8524   10.3878 C.ar    1  UNL1        0.0346
      8 BR         61.1264   86.6890    9.7376 Br      1  UNL1       -0.0490
      9 C          61.7685   89.2065    9.7440 C.ar    1  UNL1        0.0067
     10 C          62.4568   90.3699   10.3941 C.ar    1  UNL1        0.0006
     11 C          63.1912   90.1793   11.6881 C.ar    1  UNL1        0.0030
     12 C          63.8795   91.3427   12.3382 C.ar    1  UNL1        0.0369
     13 C          66.2729   93.1470   13.4972 C.3     1  UNL1        0.2363
     14 O          68.4330   91.7657   13.0774 O.3     1  UNL1       -0.3789
     15 C          67.2293   92.4875   12.5482 C.3     1  UNL1        0.1767
     16 H          68.4429   91.8204   14.0459 H       1  UNL1        0.2106
     17 C          66.9819   92.5497   11.0701 C.3     1  UNL1        0.1406
     18 N          67.0997   93.8571   10.3444 N.ar    1  UNL1       -0.3052
     19 C          66.5161   95.1665   10.7861 C.ar    1  UNL1        0.0981
     20 C          66.8775   96.2034    9.7643 C.ar    1  UNL1        0.1193
     21 N          67.6845   95.5349    8.6910 N.ar    1  UNL1       -0.2223
     22 C          67.8218   94.0848    9.0495 C.ar    1  UNL1        0.1787
@<TRIPOS>BOND
     1    14    15    1
     2    15    13    1
     3    13     1    1
     4     1     2    1
     5     2     3   ar
     6     3     4   ar
     7     4     5   ar
     8     5     6   ar
     9     6     7   ar
    10     7     8    1
    11     7     9   ar
    12     9    10   ar
    13    10    11   ar
    14    11    12   ar
    15    15    17    1
    16    17    18    1
    17    18    19   ar
    18    19    20   ar
    19    20    21   ar
    20    21    22   ar
    21    12     2   ar
    22    22    18   ar
    23    11     5   ar
    24    14    16    1
@<TRIPOS>MOLECULE
*****
 22 24 0 0 0
SMALL
GASTEIGER

@<TRIPOS>ATOM
      1 O          64.4738   90.9345   13.7075 O.3     1  UNL1       -0.4728
      2 C          63.6752   90.2974   12.6090 C.ar    1  UNL1        0.1387
      3 C          63.1078   91.1424   11.5073 C.ar    1  UNL1        0.0369
      4 C          62.3092   90.5054   10.4089 C.ar    1  UNL1        0.0031
      5 C          62.0780   89.0233   10.4124 C.ar    1  UNL1        0.0007
      6 C          61.2793   88.3863    9.3140 C.ar    1  UNL1        0.0067
      7 C          61.0481   86.9042    9.3175 C.ar    1  UNL1        0.0346
      8 BR         60.2495   86.2672    8.2191 Br      1  UNL1       -0.0490
      9 C          61.6155   86.0592   10.4193 C.ar    1  UNL1        0.0067
     10 C          62.4141   86.6962   11.5177 C.ar    1  UNL1        0.0006
     11 C          62.6453   88.1783   11.5142 C.ar    1  UNL1        0.0030
     12 C          63.4439   88.8154   12.6125 C.ar    1  UNL1        0.0369
     13 C          65.8014   91.5624   13.4022 C.3     1  UNL1        0.2363
     14 O          66.2213   93.9959   14.2097 O.3     1  UNL1       -0.3789
     15 C          65.8870   93.0314   13.1107 C.3     1  UNL1        0.1767
     16 H          66.3507   93.5092   15.0387 H       1  UNL1        0.2106
     17 C          65.6382   93.5357   11.7201 C.3     1  UNL1        0.1406
     18 N          66.7431   93.5144   10.7058 N.ar    1  UNL1       -0.3052
     19 C          67.5501   92.3148   10.3062 C.ar    1  UNL1        0.0981
     20 C          68.5407   92.7479    9.2664 C.ar    1  UNL1        0.1193
     21 N          68.3459   94.2153    9.0235 N.ar    1  UNL1       -0.2223
     22 C          67.2349   94.6890    9.9131 C.ar    1  UNL1        0.1787
@<TRIPOS>BOND
     1    14    15    1
     2    15    13    1
     3    13     1    1
     4     1     2    1
     5     2     3   ar
     6     3     4   ar
     7     4     5   ar
     8     5     6   ar
     9     6     7   ar
    10     7     8    1
    11     7     9   ar
    12     9    10   ar
    13    10    11   ar
    14    11    12   ar
    15    15    17    1
    16    17    18    1
    17    18    19   ar
    18    19    20   ar
    19    20    21   ar
    20    21    22   ar
    21    12     2   ar
    22    22    18   ar
    23    11     5   ar
    24    14    16    1
@<TRIPOS>MOLECULE
*****
 22 24 0 0 0
SMALL
GASTEIGER

@<TRIPOS>ATOM
      1 O          63.7385   88.0418   14.9569 O.3     1  UNL1       -0.4728
      2 C          64.0317   89.2180   14.0733 C.ar    1  UNL1        0.1387
      3 C          63.3522   89.3438   12.7420 C.ar    1  UNL1        0.0369
      4 C          63.6454   90.5199   11.8585 C.ar    1  UNL1        0.0031
      5 C          64.6182   91.5703   12.3062 C.ar    1  UNL1        0.0007
      6 C          64.9114   92.7464   11.4226 C.ar    1  UNL1        0.0067
      7 C          65.8842   93.7968   11.8703 C.ar    1  UNL1        0.0346
      8 BR         66.1775   94.9729   10.9868 Br      1  UNL1       -0.0490
      9 C          66.5638   93.6709   13.2017 C.ar    1  UNL1        0.0067
     10 C          66.2706   92.4948   14.0852 C.ar    1  UNL1        0.0006
     11 C          65.2978   91.4445   13.6375 C.ar    1  UNL1        0.0030
     12 C          65.0045   90.2683   14.5210 C.ar    1  UNL1        0.0369
     13 C          64.5282   86.7755   14.8065 C.3     1  UNL1        0.2363
     14 O          63.1136   85.7798   12.8681 O.3     1  UNL1       -0.3789
     15 C          63.9199   85.5894   14.1185 C.3     1  UNL1        0.1767
     16 H          63.0842   86.7228   12.6427 H       1  UNL1        0.2106
     17 C          64.1179   84.2131   14.6810 C.3     1  UNL1        0.1406
     18 N          63.4601   83.0340   14.0275 N.ar    1  UNL1       -0.3052
     19 C          63.9661   82.2981   12.8223 C.ar    1  UNL1        0.0981
     20 C          62.9996   81.1931   12.5143 C.ar    1  UNL1        0.1193
     21 N          61.8962   81.2462   13.5292 N.ar    1  UNL1       -0.2223
     22 C          62.1809   82.3840   14.4643 C.ar    1  UNL1        0.1787
@<TRIPOS>BOND
     1    14    15    1
     2    15    13    1
     3    13     1    1
     4     1     2    1
     5     2     3   ar
     6     3     4   ar
     7     4     5   ar
     8     5     6   ar
     9     6     7   ar
    10     7     8    1
    11     7     9   ar
    12     9    10   ar
    13    10    11   ar
    14    11    12   ar
    15    15    17    1
    16    17    18    1
    17    18    19   ar
    18    19    20   ar
    19    20    21   ar
    20    21    22   ar
    21    12     2   ar
    22    22    18   ar
    23    11     5   ar
    24    14    16    1
@<TRIPOS>MOLECULE
*****
 22 24 0 0 0
SMALL
GASTEIGER

@<TRIPOS>ATOM
      1 O          62.1938   89.9833   10.2627 O.3     1  UNL1       -0.4728
      2 C          63.1074   90.3273   11.4016 C.ar    1  UNL1        0.1387
      3 C          63.1645   89.4418   12.6110 C.ar    1  UNL1        0.0369
      4 C          64.0780   89.7858   13.7498 C.ar    1  UNL1        0.0031
      5 C          64.9345   91.0153   13.6793 C.ar    1  UNL1        0.0007
      6 C          65.8481   91.3593   14.8182 C.ar    1  UNL1        0.0067
      7 C          66.7045   92.5887   14.7477 C.ar    1  UNL1        0.0346
      8 BR         67.6181   92.9327   15.8865 Br      1  UNL1       -0.0490
      9 C          66.6474   93.4742   13.5382 C.ar    1  UNL1        0.0067
     10 C          65.7338   93.1302   12.3993 C.ar    1  UNL1        0.0006
     11 C          64.8774   91.9007   12.4699 C.ar    1  UNL1        0.0030
     12 C          63.9638   91.5567   11.3311 C.ar    1  UNL1        0.0369
     13 C          60.7142   89.8888   10.4903 C.3     1  UNL1        0.2363
     14 O          59.3384   88.3001   12.0178 O.3     1  UNL1       -0.3789
     15 C          60.0771   88.5534   10.7371 C.3     1  UNL1        0.1767
     16 H          59.3676   89.0964   12.5708 H       1  UNL1        0.2106
     17 C          60.1787   87.4713    9.7033 C.3     1  UNL1        0.1406
     18 N          61.2702   86.4466    9.7950 N.ar    1  UNL1       -0.3052
     19 C          62.0998   85.9375    8.6537 C.ar    1  UNL1        0.0981
     20 C          63.0661   84.9272    9.1975 C.ar    1  UNL1        0.1193
     21 N          62.8337   84.8120   10.6749 N.ar    1  UNL1       -0.2223
     22 C          61.7238   85.7510   11.0442 C.ar    1  UNL1        0.1787
@<TRIPOS>BOND
     1    14    15    1
     2    15    13    1
     3    13     1    1
     4     1     2    1
     5     2     3   ar
     6     3     4   ar
     7     4     5   ar
     8     5     6   ar
     9     6     7   ar
    10     7     8    1
    11     7     9   ar
    12     9    10   ar
    13    10    11   ar
    14    11    12   ar
    15    15    17    1
    16    17    18    1
    17    18    19   ar
    18    19    20   ar
    19    20    21   ar
    20    21    22   ar
    21    12     2   ar
    22    22    18   ar
    23    11     5   ar
    24    14    16    1
@<TRIPOS>MOLECULE
*****
 22 24 0 0 0
SMALL
GASTEIGER

@<TRIPOS>ATOM
      1 O          63.9117   91.5107   13.3294 O.3     1  UNL1       -0.4728
      2 C          63.8444   90.0132   13.3835 C.ar    1  UNL1        0.1387
      3 C          64.4735   89.2751   14.5278 C.ar    1  UNL1        0.0369
      4 C          64.4062   87.7776   14.5819 C.ar    1  UNL1        0.0031
      5 C          63.7098   87.0182   13.4918 C.ar    1  UNL1        0.0007
      6 C          63.6425   85.5207   13.5459 C.ar    1  UNL1        0.0067
      7 C          62.9461   84.7613   12.4558 C.ar    1  UNL1        0.0346
      8 BR         62.8788   83.2638   12.5099 Br      1  UNL1       -0.0490
      9 C          62.3170   85.4995   11.3115 C.ar    1  UNL1        0.0067
     10 C          62.3843   86.9970   11.2574 C.ar    1  UNL1        0.0006
     11 C          63.0807   87.7563   12.3475 C.ar    1  UNL1        0.0030
     12 C          63.1480   89.2538   12.2934 C.ar    1  UNL1        0.0369
     13 C          65.1490   92.1879   12.8190 C.3     1  UNL1        0.2363
     14 O          64.1803   92.2330   10.4087 O.3     1  UNL1       -0.3789
     15 C          65.3428   92.3839   11.3445 C.3     1  UNL1        0.1767
     16 H          63.3840   92.0094   10.9156 H       1  UNL1        0.2106
     17 C          66.6991   92.7306   10.8058 C.3     1  UNL1        0.1406
     18 N          66.9317   94.0655   10.1625 N.ar    1  UNL1       -0.3052
     19 C          67.5534   94.2998    8.8176 C.ar    1  UNL1        0.0981
     20 C          67.5893   95.7796    8.5750 C.ar    1  UNL1        0.1193
     21 N          66.9899   96.4599    9.7700 N.ar    1  UNL1       -0.2223
     22 C          66.5835   95.4005   10.7511 C.ar    1  UNL1        0.1787
@<TRIPOS>BOND
     1    14    15    1
     2    15    13    1
     3    13     1    1
     4     1     2    1
     5     2     3   ar
     6     3     4   ar
     7     4     5   ar
     8     5     6   ar
     9     6     7   ar
    10     7     8    1
    11     7     9   ar
    12     9    10   ar
    13    10    11   ar
    14    11    12   ar
    15    15    17    1
    16    17    18    1
    17    18    19   ar
    18    19    20   ar
    19    20    21   ar
    20    21    22   ar
    21    12     2   ar
    22    22    18   ar
    23    11     5   ar
    24    14    16    1
@<TRIPOS>MOLECULE
*****
 22 24 0 0 0
SMALL
GASTEIGER

@<TRIPOS>ATOM
      1 O          63.6996   86.8741   13.2874 O.3     1  UNL1       -0.4728
      2 C          62.9256   87.5093   12.1705 C.ar    1  UNL1        0.1387
      3 C          62.9233   89.0010   12.0132 C.ar    1  UNL1        0.0369
      4 C          62.1493   89.6362   10.8963 C.ar    1  UNL1        0.0031
      5 C          61.3775   88.7796    9.9368 C.ar    1  UNL1        0.0007
      6 C          60.6034   89.4148    8.8199 C.ar    1  UNL1        0.0067
      7 C          59.8317   88.5583    7.8604 C.ar    1  UNL1        0.0346
      8 BR         59.0576   89.1934    6.7435 Br      1  UNL1       -0.0490
      9 C          59.8339   87.0665    8.0178 C.ar    1  UNL1        0.0067
     10 C          60.6080   86.4314    9.1346 C.ar    1  UNL1        0.0006
     11 C          61.3798   87.2879   10.0941 C.ar    1  UNL1        0.0030
     12 C          62.1538   86.6528   11.2110 C.ar    1  UNL1        0.0369
     13 C          63.6536   85.3874   13.4811 C.3     1  UNL1        0.2363
     14 O          65.7978   85.4115   14.9480 O.3     1  UNL1       -0.3789
     15 C          64.5318   84.7374   14.5088 C.3     1  UNL1        0.1767
     16 H          65.8980   86.2517   14.4738 H       1  UNL1        0.2106
     17 C          64.1441   83.4132   15.0973 C.3     1  UNL1        0.1406
     18 N          63.3874   82.4173   14.2694 N.ar    1  UNL1       -0.3052
     19 C          63.9305   81.6465   13.1028 C.ar    1  UNL1        0.0981
     20 C          62.8334   80.7701   12.5751 C.ar    1  UNL1        0.1193
     21 N          61.6123   80.9994   13.4156 N.ar    1  UNL1       -0.2223
     22 C          61.9547   82.0174   14.4627 C.ar    1  UNL1        0.1787
@<TRIPOS>BOND
     1    14    15    1
     2    15    13    1
     3    13     1    1
     4     1     2    1
     5     2     3   ar
     6     3     4   ar
     7     4     5   ar
     8     5     6   ar
     9     6     7   ar
    10     7     8    1
    11     7     9   ar
    12     9    10   ar
    13    10    11   ar
    14    11    12   ar
    15    15    17    1
    16    17    18    1
    17    18    19   ar
    18    19    20   ar
    19    20    21   ar
    20    21    22   ar
    21    12     2   ar
    22    22    18   ar
    23    11     5   ar
    24    14    16    1
@<TRIPOS>MOLECULE
*****
 22 24 0 0 0
SMALL
GASTEIGER

@<TRIPOS>ATOM
      1 O          61.4676   89.0238   12.3278 O.3     1  UNL1       -0.4728
      2 C          61.2405   88.2346   11.0725 C.ar    1  UNL1        0.1387
      3 C          59.9672   88.4066   10.2985 C.ar    1  UNL1        0.0369
      4 C          59.7401   87.6175    9.0433 C.ar    1  UNL1        0.0031
      5 C          60.7863   86.6563    8.5620 C.ar    1  UNL1        0.0007
      6 C          60.5591   85.8671    7.3067 C.ar    1  UNL1        0.0067
      7 C          61.6053   84.9060    6.8255 C.ar    1  UNL1        0.0346
      8 BR         61.3782   84.1168    5.5703 Br      1  UNL1       -0.0490
      9 C          62.8787   84.7339    7.5995 C.ar    1  UNL1        0.0067
     10 C          63.1058   85.5231    8.8548 C.ar    1  UNL1        0.0006
     11 C          62.0596   86.4843    9.3360 C.ar    1  UNL1        0.0030
     12 C          62.2867   87.2734   10.5912 C.ar    1  UNL1        0.0369
     13 C          62.7261   89.8228   12.4939 C.3     1  UNL1        0.2363
     14 O          62.4306   90.0527   15.0649 O.3     1  UNL1       -0.3789
     15 C          63.3207   90.0105   13.8583 C.3     1  UNL1        0.1767
     16 H          61.5069   89.9445   14.7893 H       1  UNL1        0.2106
     17 C          64.8052   90.1560   14.0159 C.3     1  UNL1        0.1406
     18 N          65.4408   91.5110   13.9160 N.ar    1  UNL1       -0.3052
     19 C          66.1263   92.2475   15.0285 C.ar    1  UNL1        0.0981
     20 C          66.6116   93.5592   14.4862 C.ar    1  UNL1        0.1193
     21 N          66.2259   93.6333   13.0384 N.ar    1  UNL1       -0.2223
     22 C          65.5023   92.3675   12.6861 C.ar    1  UNL1        0.1787
@<TRIPOS>BOND
     1    14    15    1
     2    15    13    1
     3    13     1    1
     4     1     2    1
     5     2     3   ar
     6     3     4   ar
     7     4     5   ar
     8     5     6   ar
     9     6     7   ar
    10     7     8    1
    11     7     9   ar
    12     9    10   ar
    13    10    11   ar
    14    11    12   ar
    15    15    17    1
    16    17    18    1
    17    18    19   ar
    18    19    20   ar
    19    20    21   ar
    20    21    22   ar
    21    12     2   ar
    22    22    18   ar
    23    11     5   ar
    24    14    16    1
@<TRIPOS>MOLECULE
*****
 22 24 0 0 0
SMALL
GASTEIGER

@<TRIPOS>ATOM
      1 O          61.6813   88.9984   12.2875 O.3     1  UNL1       -0.4728
      2 C          61.3915   88.1946   11.0546 C.ar    1  UNL1        0.1387
      3 C          60.0498   88.2956   10.3917 C.ar    1  UNL1        0.0369
      4 C          59.7600   87.4918    9.1588 C.ar    1  UNL1        0.0031
      5 C          60.8120   86.5871    8.5889 C.ar    1  UNL1        0.0007
      6 C          60.5222   85.7833    7.3560 C.ar    1  UNL1        0.0067
      7 C          61.5741   84.8785    6.7862 C.ar    1  UNL1        0.0346
      8 BR         61.2844   84.0747    5.5533 Br      1  UNL1       -0.0490
      9 C          62.9159   84.7775    7.4492 C.ar    1  UNL1        0.0067
     10 C          63.2057   85.5813    8.6820 C.ar    1  UNL1        0.0006
     11 C          62.1537   86.4861    9.2519 C.ar    1  UNL1        0.0030
     12 C          62.4434   87.2899   10.4848 C.ar    1  UNL1        0.0369
     13 C          62.9002   89.8708   12.3448 C.3     1  UNL1        0.2363
     14 O          63.2970   91.4856   14.3411 O.3     1  UNL1       -0.3789
     15 C          63.5469   90.1702   13.6647 C.3     1  UNL1        0.1767
     16 H          62.6999   92.0213   13.7957 H       1  UNL1        0.2106
     17 C          64.4434   89.1543   14.3083 C.3     1  UNL1        0.1406
     18 N          63.9000   88.2346   15.3612 N.ar    1  UNL1       -0.3052
     19 C          63.1885   88.6514   16.6142 C.ar    1  UNL1        0.0981
     20 C          62.8215   87.4109   17.3735 C.ar    1  UNL1        0.1193
     21 N          63.3063   86.2273   16.5896 N.ar    1  UNL1       -0.2223
     22 C          63.9728   86.7364   15.3460 C.ar    1  UNL1        0.1787
@<TRIPOS>BOND
     1    14    15    1
     2    15    13    1
     3    13     1    1
     4     1     2    1
     5     2     3   ar
     6     3     4   ar
     7     4     5   ar
     8     5     6   ar
     9     6     7   ar
    10     7     8    1
    11     7     9   ar
    12     9    10   ar
    13    10    11   ar
    14    11    12   ar
    15    15    17    1
    16    17    18    1
    17    18    19   ar
    18    19    20   ar
    19    20    21   ar
    20    21    22   ar
    21    12     2   ar
    22    22    18   ar
    23    11     5   ar
    24    14    16    1
@<TRIPOS>MOLECULE
*****
 22 24 0 0 0
SMALL
GASTEIGER

@<TRIPOS>ATOM
      1 O          64.5546   88.2303   14.7883 O.3     1  UNL1       -0.4728
      2 C          64.1490   86.7879   14.7169 C.ar    1  UNL1        0.1387
      3 C          64.0438   85.9753   15.9733 C.ar    1  UNL1        0.0369
      4 C          63.6383   84.5330   15.9018 C.ar    1  UNL1        0.0031
      5 C          63.3379   83.9032   14.5740 C.ar    1  UNL1        0.0007
      6 C          62.9324   82.4608   14.5026 C.ar    1  UNL1        0.0067
      7 C          62.6320   81.8311   13.1747 C.ar    1  UNL1        0.0346
      8 BR         62.2265   80.3887   13.1033 Br      1  UNL1       -0.0490
      9 C          62.7372   82.6437   11.9183 C.ar    1  UNL1        0.0067
     10 C          63.1428   84.0860   11.9897 C.ar    1  UNL1        0.0006
     11 C          63.4431   84.7158   13.3176 C.ar    1  UNL1        0.0030
     12 C          63.8487   86.1581   13.3890 C.ar    1  UNL1        0.0369
     13 C          64.0364   89.2062   13.7738 C.3     1  UNL1        0.2363
     14 O          63.2187   91.2964   15.0825 O.3     1  UNL1       -0.3789
     15 C          64.1094   90.6797   14.0450 C.3     1  UNL1        0.1767
     16 H          62.6618   90.6090   15.4803 H       1  UNL1        0.2106
     17 C          65.0731   91.5365   13.2788 C.3     1  UNL1        0.1406
     18 N          66.3036   92.0677   13.9523 N.ar    1  UNL1       -0.3052
     19 C          66.3481   92.7851   15.2689 C.ar    1  UNL1        0.0981
     20 C          67.7776   93.1356   15.5578 C.ar    1  UNL1        0.1193
     21 N          68.6167   92.6348   14.4197 N.ar    1  UNL1       -0.2223
     22 C          67.7057   91.9749   13.4275 C.ar    1  UNL1        0.1787
@<TRIPOS>BOND
     1    14    15    1
     2    15    13    1
     3    13     1    1
     4     1     2    1
     5     2     3   ar
     6     3     4   ar
     7     4     5   ar
     8     5     6   ar
     9     6     7   ar
    10     7     8    1
    11     7     9   ar
    12     9    10   ar
    13    10    11   ar
    14    11    12   ar
    15    15    17    1
    16    17    18    1
    17    18    19   ar
    18    19    20   ar
    19    20    21   ar
    20    21    22   ar
    21    12     2   ar
    22    22    18   ar
    23    11     5   ar
    24    14    16    1
