@<TRIPOS>MOLECULE
*****
 29 32 0 0 0
SMALL
GASTEIGER

@<TRIPOS>ATOM
      1 C          62.2229   87.2034   11.7499 C.ar    1  UNL1        0.0813
      2 C          63.1092   88.3286   12.1951 C.ar    1  UNL1        0.0364
      3 C          63.1109   89.6252   11.4409 C.ar    1  UNL1        0.0830
      4 C          62.2263   89.7966   10.2417 C.ar    1  UNL1        0.0988
      5 N          61.3401   88.6713    9.7965 N.ar    1  UNL1       -0.2906
      6 C          60.3682   88.5481    8.6606 C.ar    1  UNL1        0.0567
      7 C          60.0540   89.6111    7.6500 C.3     1  UNL1        0.0517
      8 C          59.7658   87.1753    8.7127 C.ar    1  UNL1        0.0730
      9 C          58.7434   86.6245    7.7633 C.3     1  UNL1        0.0534
     10 N          60.3654   86.4501    9.8808 N.ar    1  UNL1       -0.2299
     11 C          61.3383   87.3747   10.5507 C.ar    1  UNL1        0.1604
     12 N          63.9972   90.7506   11.8860 N.ar    1  UNL1       -0.3019
     13 C          64.4785   90.8098   13.3055 C.ar    1  UNL1        0.0835
     14 C          65.3648   91.9351   13.7506 C.ar    1  UNL1        0.0610
     15 C          65.7699   93.0013   12.7762 C.ar    1  UNL1        0.1987
     16 O          66.6561   94.1266   13.2213 O.2     1  UNL1       -0.2865
     17 C          65.2886   92.9421   11.3568 C.ar    1  UNL1        0.0610
     18 C          64.4022   91.8167   10.9117 C.ar    1  UNL1        0.0835
     19 N          62.2211   85.9067   12.5041 N.pl3   1  UNL1       -0.3267
     20 H          61.4537   85.6693   13.0733 H       1  UNL1        0.1472
     21 C          63.3885   84.9716   12.3909 C.3     1  UNL1        0.1137
     22 C          63.8940   83.3821    9.8974 C.3     1  UNL1        0.0307
     23 C          63.4169   82.6938   11.1418 C.ar    1  UNL1       -0.0245
     24 C          63.1924   81.2106   11.1394 C.ar    1  UNL1       -0.0045
     25 C          62.7153   80.5223   12.3838 C.ar    1  UNL1       -0.0007
     26 C          62.4625   81.3171   13.6305 C.ar    1  UNL1       -0.0045
     27 C          62.6869   82.8002   13.6329 C.ar    1  UNL1       -0.0245
     28 C          62.4342   83.5950   14.8797 C.3     1  UNL1        0.0307
     29 C          63.1641   83.4886   12.3885 C.ar    1  UNL1       -0.0105
@<TRIPOS>BOND
     1    22    23    1
     2    23    24   ar
     3    24    25   ar
     4    25    26   ar
     5    26    27   ar
     6    27    28    1
     7    27    29   ar
     8    29    21    1
     9    21    19    1
    10    19     1    1
    11     1     2   ar
    12     2     3   ar
    13     3    12    1
    14    12    13   ar
    15    13    14   ar
    16    14    15   ar
    17    15    16    2
    18    15    17   ar
    19    17    18   ar
    20     3     4   ar
    21     4     5   ar
    22     5     6   ar
    23     6     7    1
    24     6     8   ar
    25     8     9    1
    26     8    10   ar
    27    10    11   ar
    28    29    23   ar
    29    11     1   ar
    30    18    12   ar
    31    11     5   ar
    32    19    20    1
@<TRIPOS>MOLECULE
*****
 29 32 0 0 0
SMALL
GASTEIGER

@<TRIPOS>ATOM
      1 C          62.3829   88.8947   10.8243 C.ar    1  UNL1        0.0813
      2 C          62.8119   87.7141   11.6442 C.ar    1  UNL1        0.0364
      3 C          62.2517   86.3539   11.3508 C.ar    1  UNL1        0.0830
      4 C          61.2625   86.1744   10.2376 C.ar    1  UNL1        0.0988
      5 N          60.8336   87.3549    9.4177 N.ar    1  UNL1       -0.2906
      6 C          59.8819   87.4843    8.2655 C.ar    1  UNL1        0.0567
      7 C          59.0961   86.3692    7.6416 C.3     1  UNL1        0.0517
      8 C          59.8538   88.9244    7.8469 C.ar    1  UNL1        0.0730
      9 C          59.0351   89.5023    6.7307 C.3     1  UNL1        0.0534
     10 N          60.7883   89.6851    8.7402 N.ar    1  UNL1       -0.2299
     11 C          61.3938   88.7151    9.7111 C.ar    1  UNL1        0.1604
     12 N          62.6806   85.1733   12.1707 N.ar    1  UNL1       -0.3019
     13 C          62.4717   83.7824   11.6493 C.ar    1  UNL1        0.0835
     14 C          62.9006   82.6018   12.4691 C.ar    1  UNL1        0.0610
     15 C          63.5384   82.8120   13.8105 C.ar    1  UNL1        0.1987
     16 O          63.9673   81.6314   14.6303 O.2     1  UNL1       -0.2865
     17 C          63.7473   84.2029   14.3319 C.ar    1  UNL1        0.0610
     18 C          63.3184   85.3835   13.5120 C.ar    1  UNL1        0.0835
     19 N          62.9431   90.2549   11.1177 N.pl3   1  UNL1       -0.3267
     20 H          63.1965   90.8530   10.3779 H       1  UNL1        0.1472
     21 C          63.1172   90.7039   12.5383 C.3     1  UNL1        0.1137
     22 C          64.1285   89.8486   15.2301 C.3     1  UNL1        0.0307
     23 C          64.9652   90.7429   14.3641 C.ar    1  UNL1       -0.0245
     24 C          66.3075   91.2097   14.8440 C.ar    1  UNL1       -0.0045
     25 C          67.1442   92.1041   13.9780 C.ar    1  UNL1       -0.0007
     26 C          66.6386   92.5318   12.6321 C.ar    1  UNL1       -0.0045
     27 C          65.2963   92.0650   12.1522 C.ar    1  UNL1       -0.0245
     28 C          64.7907   92.4927   10.8063 C.3     1  UNL1        0.0307
     29 C          64.4595   91.1706   13.0182 C.ar    1  UNL1       -0.0105
@<TRIPOS>BOND
     1    22    23    1
     2    23    24   ar
     3    24    25   ar
     4    25    26   ar
     5    26    27   ar
     6    27    28    1
     7    27    29   ar
     8    29    21    1
     9    21    19    1
    10    19     1    1
    11     1     2   ar
    12     2     3   ar
    13     3    12    1
    14    12    13   ar
    15    13    14   ar
    16    14    15   ar
    17    15    16    2
    18    15    17   ar
    19    17    18   ar
    20     3     4   ar
    21     4     5   ar
    22     5     6   ar
    23     6     7    1
    24     6     8   ar
    25     8     9    1
    26     8    10   ar
    27    10    11   ar
    28    29    23   ar
    29    11     1   ar
    30    18    12   ar
    31    11     5   ar
    32    19    20    1
@<TRIPOS>MOLECULE
*****
 29 32 0 0 0
SMALL
GASTEIGER

@<TRIPOS>ATOM
      1 C          62.3863   88.8839   10.8245 C.ar    1  UNL1        0.0813
      2 C          62.8156   87.7019   11.6421 C.ar    1  UNL1        0.0364
      3 C          62.2562   86.3421   11.3459 C.ar    1  UNL1        0.0830
      4 C          61.2674   86.1642   10.2320 C.ar    1  UNL1        0.0988
      5 N          60.8381   87.3462    9.4144 N.ar    1  UNL1       -0.2906
      6 C          59.8866   87.4773    8.2623 C.ar    1  UNL1        0.0567
      7 C          59.1015   86.3632    7.6360 C.3     1  UNL1        0.0517
      8 C          59.8579   88.9183    7.8465 C.ar    1  UNL1        0.0730
      9 C          59.0391   89.4980    6.7313 C.3     1  UNL1        0.0534
     10 N          60.7918   89.6777    8.7416 N.ar    1  UNL1       -0.2299
     11 C          61.3975   88.7060    9.7106 C.ar    1  UNL1        0.1604
     12 N          62.6855   85.1600   12.1635 N.ar    1  UNL1       -0.3019
     13 C          63.3169   85.3677   13.5082 C.ar    1  UNL1        0.0835
     14 C          63.7462   84.1858   14.3259 C.ar    1  UNL1        0.0610
     15 C          63.5442   82.7960   13.7988 C.ar    1  UNL1        0.1987
     16 O          63.9735   81.6140   14.6165 O.2     1  UNL1       -0.2865
     17 C          62.9128   82.5882   12.4542 C.ar    1  UNL1        0.0610
     18 C          62.4834   83.7703   11.6365 C.ar    1  UNL1        0.0835
     19 N          62.9458   90.2438   11.1207 N.pl3   1  UNL1       -0.3267
     20 H          63.1942   90.8455   10.3821 H       1  UNL1        0.1472
     21 C          63.1267   90.6870   12.5423 C.3     1  UNL1        0.1137
     22 C          64.7577   92.4991   10.7941 C.3     1  UNL1        0.0307
     23 C          65.2805   92.0822   12.1368 C.ar    1  UNL1       -0.0245
     24 C          66.6189   92.5713   12.6054 C.ar    1  UNL1       -0.0045
     25 C          67.1417   92.1544   13.9481 C.ar    1  UNL1       -0.0007
     26 C          66.3262   91.2483   14.8222 C.ar    1  UNL1       -0.0045
     27 C          64.9878   90.7592   14.3536 C.ar    1  UNL1       -0.0245
     28 C          64.1723   89.8532   15.2277 C.3     1  UNL1        0.0307
     29 C          64.4650   91.1761   13.0109 C.ar    1  UNL1       -0.0105
@<TRIPOS>BOND
     1    22    23    1
     2    23    24   ar
     3    24    25   ar
     4    25    26   ar
     5    26    27   ar
     6    27    28    1
     7    27    29   ar
     8    29    21    1
     9    21    19    1
    10    19     1    1
    11     1     2   ar
    12     2     3   ar
    13     3    12    1
    14    12    13   ar
    15    13    14   ar
    16    14    15   ar
    17    15    16    2
    18    15    17   ar
    19    17    18   ar
    20     3     4   ar
    21     4     5   ar
    22     5     6   ar
    23     6     7    1
    24     6     8   ar
    25     8     9    1
    26     8    10   ar
    27    10    11   ar
    28    29    23   ar
    29    11     1   ar
    30    18    12   ar
    31    11     5   ar
    32    19    20    1
@<TRIPOS>MOLECULE
*****
 29 32 0 0 0
SMALL
GASTEIGER

@<TRIPOS>ATOM
      1 C          62.2687   87.0305   11.8978 C.ar    1  UNL1        0.0813
      2 C          63.1438   88.1279   12.4268 C.ar    1  UNL1        0.0364
      3 C          63.1597   89.4665   11.7501 C.ar    1  UNL1        0.0830
      4 C          62.3005   89.7076   10.5445 C.ar    1  UNL1        0.0988
      5 N          61.4253   88.6103   10.0155 N.ar    1  UNL1       -0.2906
      6 C          60.4779   88.5537    8.8540 C.ar    1  UNL1        0.0567
      7 C          60.1836   89.6741    7.9010 C.3     1  UNL1        0.0517
      8 C          59.8764   87.1802    8.8128 C.ar    1  UNL1        0.0730
      9 C          58.8750   86.6859    7.8113 C.3     1  UNL1        0.0534
     10 N          60.4521   86.3878    9.9489 N.ar    1  UNL1       -0.2299
     11 C          61.4094   87.2717   10.6922 C.ar    1  UNL1        0.1604
     12 N          64.0349   90.5639   12.2790 N.ar    1  UNL1       -0.3019
     13 C          64.4360   91.6999   11.3853 C.ar    1  UNL1        0.0835
     14 C          65.3112   92.7973   11.9142 C.ar    1  UNL1        0.0610
     15 C          65.7852   92.7588   13.3368 C.ar    1  UNL1        0.1987
     16 O          66.6603   93.8563   13.8657 O.2     1  UNL1       -0.2865
     17 C          65.3841   91.6229   14.2306 C.ar    1  UNL1        0.0610
     18 C          64.5089   90.5254   13.7016 C.ar    1  UNL1        0.0835
     19 N          62.2527   85.6919   12.5745 N.pl3   1  UNL1       -0.3267
     20 H          61.4695   85.4172   13.1040 H       1  UNL1        0.1472
     21 C          63.4302   84.7717   12.4445 C.3     1  UNL1        0.1137
     22 C          62.5404   83.2506   14.8723 C.3     1  UNL1        0.0307
     23 C          62.7732   82.5284   13.5785 C.ar    1  UNL1       -0.0245
     24 C          62.5611   81.0456   13.4985 C.ar    1  UNL1       -0.0045
     25 C          62.7939   80.3234   12.2046 C.ar    1  UNL1       -0.0007
     26 C          63.2387   81.0839   10.9907 C.ar    1  UNL1       -0.0045
     27 C          63.4509   82.5667   11.0706 C.ar    1  UNL1       -0.0245
     28 C          63.8957   83.3272    9.8566 C.3     1  UNL1        0.0307
     29 C          63.2181   83.2890   12.3645 C.ar    1  UNL1       -0.0105
@<TRIPOS>BOND
     1    22    23    1
     2    23    24   ar
     3    24    25   ar
     4    25    26   ar
     5    26    27   ar
     6    27    28    1
     7    27    29   ar
     8    29    21    1
     9    21    19    1
    10    19     1    1
    11     1     2   ar
    12     2     3   ar
    13     3    12    1
    14    12    13   ar
    15    13    14   ar
    16    14    15   ar
    17    15    16    2
    18    15    17   ar
    19    17    18   ar
    20     3     4   ar
    21     4     5   ar
    22     5     6   ar
    23     6     7    1
    24     6     8   ar
    25     8     9    1
    26     8    10   ar
    27    10    11   ar
    28    29    23   ar
    29    11     1   ar
    30    18    12   ar
    31    11     5   ar
    32    19    20    1
@<TRIPOS>MOLECULE
*****
 29 32 0 0 0
SMALL
GASTEIGER

@<TRIPOS>ATOM
      1 C          63.4127   87.9942   12.8443 C.ar    1  UNL1        0.0813
      2 C          62.5752   88.4161   11.6736 C.ar    1  UNL1        0.0364
      3 C          61.8421   87.3864   10.8661 C.ar    1  UNL1        0.0830
      4 C          61.9464   85.9347   11.2293 C.ar    1  UNL1        0.0988
      5 N          62.7839   85.5129   12.4000 N.ar    1  UNL1       -0.2906
      6 C          63.0745   84.1660   12.9928 C.ar    1  UNL1        0.0567
      7 C          62.5452   82.8524   12.4984 C.3     1  UNL1        0.0517
      8 C          63.9872   84.3633   14.1666 C.ar    1  UNL1        0.0730
      9 C          64.5310   83.2815   15.0523 C.3     1  UNL1        0.0534
     10 N          64.2608   85.8321   14.2994 N.ar    1  UNL1       -0.2299
     11 C          63.5170   86.5426   13.2075 C.ar    1  UNL1        0.1604
     12 N          61.0046   87.8082    9.6953 N.ar    1  UNL1       -0.3019
     13 C          60.8324   89.2651    9.3825 C.ar    1  UNL1        0.0835
     14 C          59.9950   89.6870    8.2117 C.ar    1  UNL1        0.0610
     15 C          59.3296   88.6519    7.3537 C.ar    1  UNL1        0.1987
     16 O          58.4922   89.0738    6.1830 O.2     1  UNL1       -0.2865
     17 C          59.5018   87.1951    7.6665 C.ar    1  UNL1        0.0610
     18 C          60.3393   86.7732    8.8373 C.ar    1  UNL1        0.0835
     19 N          64.1459   89.0240   13.6519 N.pl3   1  UNL1       -0.3267
     20 H          64.8968   88.7541   14.2285 H       1  UNL1        0.1472
     21 C          63.7349   90.4648   13.5808 C.3     1  UNL1        0.1137
     22 C          65.8805   91.7216   15.2591 C.3     1  UNL1        0.0307
     23 C          65.7331   92.1083   13.8173 C.ar    1  UNL1       -0.0245
     24 C          66.6586   93.1234   13.2147 C.ar    1  UNL1       -0.0045
     25 C          66.5113   93.5100   11.7729 C.ar    1  UNL1       -0.0007
     26 C          65.4384   92.8816   10.9337 C.ar    1  UNL1       -0.0045
     27 C          64.5130   91.8666   11.5363 C.ar    1  UNL1       -0.0245
     28 C          63.4402   91.2381   10.6972 C.3     1  UNL1        0.0307
     29 C          64.6603   91.4799   12.9782 C.ar    1  UNL1       -0.0105
@<TRIPOS>BOND
     1    22    23    1
     2    23    24   ar
     3    24    25   ar
     4    25    26   ar
     5    26    27   ar
     6    27    28    1
     7    27    29   ar
     8    29    21    1
     9    21    19    1
    10    19     1    1
    11     1     2   ar
    12     2     3   ar
    13     3    12    1
    14    12    13   ar
    15    13    14   ar
    16    14    15   ar
    17    15    16    2
    18    15    17   ar
    19    17    18   ar
    20     3     4   ar
    21     4     5   ar
    22     5     6   ar
    23     6     7    1
    24     6     8   ar
    25     8     9    1
    26     8    10   ar
    27    10    11   ar
    28    29    23   ar
    29    11     1   ar
    30    18    12   ar
    31    11     5   ar
    32    19    20    1
@<TRIPOS>MOLECULE
*****
 29 32 0 0 0
SMALL
GASTEIGER

@<TRIPOS>ATOM
      1 C          63.1913   86.5425   12.6594 C.ar    1  UNL1        0.0813
      2 C          62.7644   85.8747   11.3859 C.ar    1  UNL1        0.0364
      3 C          62.4732   86.6997   10.1675 C.ar    1  UNL1        0.0830
      4 C          62.6089   88.1925   10.2226 C.ar    1  UNL1        0.0988
      5 N          63.0358   88.8603   11.4961 N.ar    1  UNL1       -0.2906
      6 C          63.2547   90.3017   11.8491 C.ar    1  UNL1        0.0567
      7 C          63.0781   91.4718   10.9274 C.3     1  UNL1        0.0517
      8 C          63.6812   90.3674   13.2857 C.ar    1  UNL1        0.0730
      9 C          64.0060   91.6149   14.0528 C.3     1  UNL1        0.0534
     10 N          63.7259   88.9668   13.8206 N.ar    1  UNL1       -0.2299
     11 C          63.3270   88.0353   12.7145 C.ar    1  UNL1        0.1604
     12 N          62.0463   86.0319    8.8940 N.ar    1  UNL1       -0.3019
     13 C          60.6370   86.1838    8.4034 C.ar    1  UNL1        0.0835
     14 C          60.2100   85.5161    7.1299 C.ar    1  UNL1        0.0610
     15 C          61.1925   84.6964    6.3469 C.ar    1  UNL1        0.1987
     16 O          60.7655   84.0286    5.0734 O.2     1  UNL1       -0.2865
     17 C          62.6018   84.5444    6.8375 C.ar    1  UNL1        0.0610
     18 C          63.0287   85.2122    8.1111 C.ar    1  UNL1        0.0835
     19 N          63.4825   85.7174   13.8778 N.pl3   1  UNL1       -0.3267
     20 H          63.1845   86.0260   14.7640 H       1  UNL1        0.1472
     21 C          64.2277   84.4223   13.7461 C.3     1  UNL1        0.1137
     22 C          64.6581   82.8029   11.2577 C.3     1  UNL1        0.0307
     23 C          63.6898   82.3310   12.3015 C.ar    1  UNL1       -0.0245
     24 C          62.9366   81.0493   12.1012 C.ar    1  UNL1       -0.0045
     25 C          61.9683   80.5774   13.1450 C.ar    1  UNL1       -0.0007
     26 C          61.7531   81.3871   14.3892 C.ar    1  UNL1       -0.0045
     27 C          62.5062   82.6688   14.5896 C.ar    1  UNL1       -0.0245
     28 C          62.2910   83.4785   15.8338 C.3     1  UNL1        0.0307
     29 C          63.4746   83.1407   13.5457 C.ar    1  UNL1       -0.0105
@<TRIPOS>BOND
     1    22    23    1
     2    23    24   ar
     3    24    25   ar
     4    25    26   ar
     5    26    27   ar
     6    27    28    1
     7    27    29   ar
     8    29    21    1
     9    21    19    1
    10    19     1    1
    11     1     2   ar
    12     2     3   ar
    13     3    12    1
    14    12    13   ar
    15    13    14   ar
    16    14    15   ar
    17    15    16    2
    18    15    17   ar
    19    17    18   ar
    20     3     4   ar
    21     4     5   ar
    22     5     6   ar
    23     6     7    1
    24     6     8   ar
    25     8     9    1
    26     8    10   ar
    27    10    11   ar
    28    29    23   ar
    29    11     1   ar
    30    18    12   ar
    31    11     5   ar
    32    19    20    1
@<TRIPOS>MOLECULE
*****
 29 32 0 0 0
SMALL
GASTEIGER

@<TRIPOS>ATOM
      1 C          63.2679   87.8430   12.8063 C.ar    1  UNL1        0.0813
      2 C          62.4520   88.3255   11.6438 C.ar    1  UNL1        0.0364
      3 C          61.7575   87.3379   10.7537 C.ar    1  UNL1        0.0830
      4 C          61.8788   85.8678   11.0261 C.ar    1  UNL1        0.0988
      5 N          62.6947   85.3854   12.1887 N.ar    1  UNL1       -0.2906
      6 C          62.9947   84.0081   12.7016 C.ar    1  UNL1        0.0567
      7 C          62.5014   82.7205   12.1111 C.3     1  UNL1        0.0517
      8 C          63.8747   84.1445   13.9087 C.ar    1  UNL1        0.0730
      9 C          64.4159   83.0171   14.7372 C.3     1  UNL1        0.0534
     10 N          64.1186   85.6060   14.1418 N.ar    1  UNL1       -0.2299
     11 C          63.3893   86.3729   13.0787 C.ar    1  UNL1        0.1604
     12 N          60.9415   87.8203    9.5911 N.ar    1  UNL1       -0.3019
     13 C          60.2118   86.8352    8.7268 C.ar    1  UNL1        0.0835
     14 C          59.3959   87.3176    7.5642 C.ar    1  UNL1        0.0610
     15 C          59.3096   88.7852    7.2660 C.ar    1  UNL1        0.1987
     16 O          58.4937   89.2676    6.1034 O.2     1  UNL1       -0.2865
     17 C          60.0394   89.7703    8.1303 C.ar    1  UNL1        0.0610
     18 C          60.8553   89.2878    9.2929 C.ar    1  UNL1        0.0835
     19 N          63.9625   88.8306   13.6964 N.pl3   1  UNL1       -0.3267
     20 H          64.6576   88.5247   14.3229 H       1  UNL1        0.1472
     21 C          63.5980   90.2842   13.6319 C.3     1  UNL1        0.1137
     22 C          65.1196   91.7686   11.5150 C.3     1  UNL1        0.0307
     23 C          65.3634   92.0695   12.9641 C.ar    1  UNL1       -0.0245
     24 C          66.3680   93.1127   13.3548 C.ar    1  UNL1       -0.0045
     25 C          66.6118   93.4137   14.8039 C.ar    1  UNL1       -0.0007
     26 C          65.8510   92.6715   15.8623 C.ar    1  UNL1       -0.0045
     27 C          64.8465   91.6283   15.4717 C.ar    1  UNL1       -0.0245
     28 C          64.0857   90.8861   16.5302 C.3     1  UNL1        0.0307
     29 C          64.6026   91.3273   14.0225 C.ar    1  UNL1       -0.0105
@<TRIPOS>BOND
     1    22    23    1
     2    23    24   ar
     3    24    25   ar
     4    25    26   ar
     5    26    27   ar
     6    27    28    1
     7    27    29   ar
     8    29    21    1
     9    21    19    1
    10    19     1    1
    11     1     2   ar
    12     2     3   ar
    13     3    12    1
    14    12    13   ar
    15    13    14   ar
    16    14    15   ar
    17    15    16    2
    18    15    17   ar
    19    17    18   ar
    20     3     4   ar
    21     4     5   ar
    22     5     6   ar
    23     6     7    1
    24     6     8   ar
    25     8     9    1
    26     8    10   ar
    27    10    11   ar
    28    29    23   ar
    29    11     1   ar
    30    18    12   ar
    31    11     5   ar
    32    19    20    1
@<TRIPOS>MOLECULE
*****
 29 32 0 0 0
SMALL
GASTEIGER

@<TRIPOS>ATOM
      1 C          63.5652   87.2276   13.4050 C.ar    1  UNL1        0.0813
      2 C          62.6788   86.9411   12.2294 C.ar    1  UNL1        0.0364
      3 C          62.3434   88.0346   11.2589 C.ar    1  UNL1        0.0830
      4 C          62.8944   89.4145   11.4641 C.ar    1  UNL1        0.0988
      5 N          63.7808   89.7011   12.6398 N.ar    1  UNL1       -0.2906
      6 C          64.4664   90.9540   13.0981 C.ar    1  UNL1        0.0567
      7 C          64.4039   92.2912   12.4215 C.3     1  UNL1        0.0517
      8 C          65.2256   90.6349   14.3519 C.ar    1  UNL1        0.0730
      9 C          66.0555   91.5971   15.1491 C.3     1  UNL1        0.0534
     10 N          65.0092   89.1847   14.6684 N.ar    1  UNL1       -0.2299
     11 C          64.1162   88.6076   13.6102 C.ar    1  UNL1        0.1604
     12 N          61.4570   87.7481   10.0832 N.ar    1  UNL1       -0.3019
     13 C          61.3445   86.3499    9.5518 C.ar    1  UNL1        0.0835
     14 C          60.4582   86.0634    8.3762 C.ar    1  UNL1        0.0610
     15 C          59.6842   87.1751    7.7318 C.ar    1  UNL1        0.1987
     16 O          58.7978   86.8886    6.5562 O.2     1  UNL1       -0.2865
     17 C          59.7966   88.5733    8.2632 C.ar    1  UNL1        0.0610
     18 C          60.6830   88.8598    9.4390 C.ar    1  UNL1        0.0835
     19 N          63.9007   86.1342   14.3755 N.pl3   1  UNL1       -0.3267
     20 H          63.7265   86.2584   15.3365 H       1  UNL1        0.1472
     21 C          64.5015   84.8515   13.8818 C.3     1  UNL1        0.1137
     22 C          62.6255   83.8980   16.0200 C.3     1  UNL1        0.0307
     23 C          62.6873   83.1827   14.7030 C.ar    1  UNL1       -0.0245
     24 C          61.8112   81.9907   14.4550 C.ar    1  UNL1       -0.0045
     25 C          61.8731   81.2754   13.1380 C.ar    1  UNL1       -0.0007
     26 C          62.8111   81.7521   12.0690 C.ar    1  UNL1       -0.0045
     27 C          63.6872   82.9441   12.3169 C.ar    1  UNL1       -0.0245
     28 C          64.6252   83.4208   11.2478 C.3     1  UNL1        0.0307
     29 C          63.6254   83.6595   13.6339 C.ar    1  UNL1       -0.0105
@<TRIPOS>BOND
     1    22    23    1
     2    23    24   ar
     3    24    25   ar
     4    25    26   ar
     5    26    27   ar
     6    27    28    1
     7    27    29   ar
     8    29    21    1
     9    21    19    1
    10    19     1    1
    11     1     2   ar
    12     2     3   ar
    13     3    12    1
    14    12    13   ar
    15    13    14   ar
    16    14    15   ar
    17    15    16    2
    18    15    17   ar
    19    17    18   ar
    20     3     4   ar
    21     4     5   ar
    22     5     6   ar
    23     6     7    1
    24     6     8   ar
    25     8     9    1
    26     8    10   ar
    27    10    11   ar
    28    29    23   ar
    29    11     1   ar
    30    18    12   ar
    31    11     5   ar
    32    19    20    1
