@<TRIPOS>MOLECULE
*****
 46 49 0 0 0
SMALL
GASTEIGER

@<TRIPOS>ATOM
      1 N          60.1013   88.3506    9.5179 N.ar    1  UNL1       -0.2470
      2 C          60.7884   87.0178    9.5554 C.ar    1  UNL1        0.2657
      3 O          60.3616   85.9274    8.6178 O.2     1  UNL1       -0.2668
      4 C          61.9021   86.7754   10.5304 C.ar    1  UNL1        0.0759
      5 C          62.3289   87.8657   11.4679 C.ar    1  UNL1        0.0848
      6 N          61.6418   89.1986   11.4305 N.ar    1  UNL1       -0.2755
      7 C          60.5280   89.4410   10.4555 C.ar    1  UNL1        0.3341
      8 O          59.8409   90.7739   10.4180 O.2     1  UNL1       -0.2462
      9 C          62.5893   85.4425   10.5679 C.ar    1  UNL1        0.0366
     10 C          63.2984   84.9297    9.3495 C.ar    1  UNL1        0.0026
     11 C          63.9855   83.5969    9.3870 C.ar    1  UNL1        0.0033
     12 C          63.9635   82.7768   10.6428 C.ar    1  UNL1        0.0392
     13 C          63.2545   83.2895   11.8611 C.ar    1  UNL1        0.1658
     14 C          62.5673   84.6224   11.8236 C.ar    1  UNL1        0.1739
     15 F          61.8583   85.1352   13.0419 F       1  UNL1       -0.2010
     16 O          63.2325   82.4695   13.1169 O.3     1  UNL1       -0.4732
     17 C          63.8095   83.0246   14.3853 C.3     1  UNL1        0.2055
     18 C          64.7449   84.1961   14.3340 C.3     1  UNL1        0.0477
     19 C          64.3160   85.5231   14.8864 C.3     1  UNL1        0.0097
     20 C          64.0253   85.6672   16.3508 C.3     1  UNL1        0.0418
     21 C          62.6055   85.7031   16.8336 C.2     1  UNL1        0.0503
     22 O          62.2773   86.3408   18.1510 O.co2   1  UNL1       -0.5492
     23 O          61.5141   85.1014   15.9990 O.co2   1  UNL1       -0.5492
     24 C          58.9874   88.5931    8.5429 C.3     1  UNL1        0.1334
     25 N          59.5500   87.1419    6.4627 N.3     1  UNL1       -0.3172
     26 C          59.2425   88.4789    7.0692 C.3     1  UNL1        0.0968
     27 H          59.5446   86.4285    7.1916 H       1  UNL1        0.1192
     28 H          60.4697   87.1716    6.0227 H       1  UNL1        0.1192
     29 C          59.1902   89.7018    6.2020 C.ar    1  UNL1       -0.0063
     30 C          60.4556   90.2737    5.6349 C.ar    1  UNL1       -0.0029
     31 C          60.4033   91.4965    4.7677 C.ar    1  UNL1       -0.0003
     32 C          59.0855   92.1473    4.4677 C.ar    1  UNL1       -0.0000
     33 C          57.8202   91.5754    5.0348 C.ar    1  UNL1       -0.0003
     34 C          57.8725   90.3526    5.9019 C.ar    1  UNL1       -0.0029
     35 C          62.0685   90.2890   12.3680 C.3     1  UNL1        0.1394
     36 C          63.4328   90.8986   12.2380 C.ar    1  UNL1        0.0319
     37 C          63.8124   91.6268   10.9826 C.ar    1  UNL1        0.1379
     38 F          62.8276   91.7453    9.8574 F       1  UNL1       -0.2044
     39 C          65.1767   92.2364   10.8526 C.ar    1  UNL1        0.0294
     40 C          66.1615   92.1179   11.9778 C.ar    1  UNL1        0.0022
     41 C          65.7820   91.3898   13.2331 C.ar    1  UNL1        0.0037
     42 C          64.4176   90.7801   13.3632 C.ar    1  UNL1        0.0714
     43 C          64.0381   90.0520   14.6185 C.3     1  UNL1        0.4184
     44 F          63.6586   89.3238   15.8737 F       1  UNL1       -0.1659
     45 F          63.6130   91.3483   15.2419 F       1  UNL1       -0.1659
     46 F          64.4632   88.7556   13.9950 F       1  UNL1       -0.1659
@<TRIPOS>UNITY_ATOM_ATTR
22 1
charge -1
@<TRIPOS>BOND
     1    26    25    1
     2    26    24    1
     3    24     1    1
     4     1     2   ar
     5     2     3    2
     6     2     4   ar
     7     4     9    1
     8     9    10   ar
     9    10    11   ar
    10    11    12   ar
    11    12    13   ar
    12    13    16    1
    13    16    17    1
    14    17    18    1
    15    18    19    1
    16    19    20    1
    17    20    21    1
    18    21    22   ar
    19    21    23   ar
    20    13    14   ar
    21    14    15    1
    22     4     5   ar
    23     5     6   ar
    24     6    35    1
    25    35    36    1
    26    36    37   ar
    27    37    38    1
    28    37    39   ar
    29    39    40   ar
    30    40    41   ar
    31    41    42   ar
    32    42    43    1
    33    43    44    1
    34    43    45    1
    35    43    46    1
    36     6     7   ar
    37     7     8    2
    38    26    29    1
    39    29    30   ar
    40    30    31   ar
    41    31    32   ar
    42    32    33   ar
    43    33    34   ar
    44     7     1   ar
    45    34    29   ar
    46    14     9   ar
    47    42    36   ar
    48    25    27    1
    49    25    28    1
@<TRIPOS>MOLECULE
*****
 46 49 0 0 0
SMALL
GASTEIGER

@<TRIPOS>ATOM
      1 N          64.9618   91.5159   12.9467 N.ar    1  UNL1       -0.2470
      2 C          64.7602   90.5295   14.0586 C.ar    1  UNL1        0.2657
      3 O          65.4992   90.6972   15.3531 O.2     1  UNL1       -0.2668
      4 C          63.8196   89.3755   13.8760 C.ar    1  UNL1        0.0759
      5 C          63.0806   89.2078   12.5815 C.ar    1  UNL1        0.0848
      6 N          63.2822   90.1942   11.4696 N.ar    1  UNL1       -0.2755
      7 C          64.2228   91.3482   11.6522 C.ar    1  UNL1        0.3341
      8 O          64.4245   92.3347   10.5402 O.2     1  UNL1       -0.2462
      9 C          63.6179   88.3890   14.9879 C.ar    1  UNL1        0.0366
     10 C          63.1668   88.8625   16.3379 C.ar    1  UNL1        0.0026
     11 C          62.9651   87.8761   17.4498 C.ar    1  UNL1        0.0033
     12 C          63.2145   86.4162   17.2117 C.ar    1  UNL1        0.0392
     13 C          63.6656   85.9428   15.8618 C.ar    1  UNL1        0.1658
     14 C          63.8673   86.9292   14.7499 C.ar    1  UNL1        0.1739
     15 F          64.3184   86.4558   13.3999 F       1  UNL1       -0.2010
     16 O          63.9151   84.4830   15.6237 O.3     1  UNL1       -0.4732
     17 C          62.8265   83.6182   15.0606 C.3     1  UNL1        0.2055
     18 C          63.1743   82.3544   14.3312 C.3     1  UNL1        0.0477
     19 C          62.2996   81.8685   13.2137 C.3     1  UNL1        0.0097
     20 C          62.8274   81.8312   11.8102 C.3     1  UNL1        0.0418
     21 C          63.5604   83.0153   11.2528 C.2     1  UNL1        0.0503
     22 O          62.9992   84.3953   11.4281 O.co2   1  UNL1       -0.5492
     23 O          64.8545   82.8195   10.5201 O.co2   1  UNL1       -0.5492
     24 C          65.9025   92.6700   13.1293 C.3     1  UNL1        0.1334
     25 N          68.4218   92.1152   13.4372 N.3     1  UNL1       -0.3172
     26 C          67.2941   92.5984   12.5742 C.3     1  UNL1        0.0968
     27 H          68.0647   91.8799   14.3632 H       1  UNL1        0.1192
     28 H          69.1249   92.8495   13.5205 H       1  UNL1        0.1192
     29 C          67.5581   93.0099   11.1561 C.ar    1  UNL1       -0.0063
     30 C          68.2890   92.0836   10.2300 C.ar    1  UNL1       -0.0029
     31 C          68.5529   92.4951    8.8120 C.ar    1  UNL1       -0.0003
     32 C          68.0859   93.8330    8.3200 C.ar    1  UNL1       -0.0000
     33 C          67.3550   94.7593    9.2460 C.ar    1  UNL1       -0.0003
     34 C          67.0911   94.3477   10.6641 C.ar    1  UNL1       -0.0029
     35 C          62.5432   90.0265   10.1750 C.3     1  UNL1        0.1394
     36 C          61.6593   88.8330    9.9652 C.ar    1  UNL1        0.0319
     37 C          62.2101   87.5959    9.3200 C.ar    1  UNL1        0.1379
     38 F          63.6449   87.5523    8.8847 F       1  UNL1       -0.2044
     39 C          61.3261   86.4023    9.1101 C.ar    1  UNL1        0.0294
     40 C          59.8914   86.4459    9.5454 C.ar    1  UNL1        0.0022
     41 C          59.3405   87.6829   10.1906 C.ar    1  UNL1        0.0037
     42 C          60.2245   88.8765   10.4005 C.ar    1  UNL1        0.0714
     43 C          59.6737   90.1135   11.0456 C.3     1  UNL1        0.4184
     44 F          59.1228   91.3506   11.6908 F       1  UNL1       -0.1659
     45 F          59.8043   89.4687   12.3936 F       1  UNL1       -0.1659
     46 F          59.5430   90.7584    9.6977 F       1  UNL1       -0.1659
@<TRIPOS>UNITY_ATOM_ATTR
22 1
charge -1
@<TRIPOS>BOND
     1    26    25    1
     2    26    24    1
     3    24     1    1
     4     1     2   ar
     5     2     3    2
     6     2     4   ar
     7     4     9    1
     8     9    10   ar
     9    10    11   ar
    10    11    12   ar
    11    12    13   ar
    12    13    16    1
    13    16    17    1
    14    17    18    1
    15    18    19    1
    16    19    20    1
    17    20    21    1
    18    21    22   ar
    19    21    23   ar
    20    13    14   ar
    21    14    15    1
    22     4     5   ar
    23     5     6   ar
    24     6    35    1
    25    35    36    1
    26    36    37   ar
    27    37    38    1
    28    37    39   ar
    29    39    40   ar
    30    40    41   ar
    31    41    42   ar
    32    42    43    1
    33    43    44    1
    34    43    45    1
    35    43    46    1
    36     6     7   ar
    37     7     8    2
    38    26    29    1
    39    29    30   ar
    40    30    31   ar
    41    31    32   ar
    42    32    33   ar
    43    33    34   ar
    44     7     1   ar
    45    34    29   ar
    46    14     9   ar
    47    42    36   ar
    48    25    27    1
    49    25    28    1
@<TRIPOS>MOLECULE
*****
 46 49 0 0 0
SMALL
GASTEIGER

@<TRIPOS>ATOM
      1 N          61.7027   87.1845   11.7477 N.ar    1  UNL1       -0.2470
      2 C          62.1440   88.3959   12.5143 C.ar    1  UNL1        0.2657
      3 O          61.4200   89.6981   12.3410 O.2     1  UNL1       -0.2668
      4 C          63.3094   88.3050   13.4543 C.ar    1  UNL1        0.0759
      5 C          64.0334   87.0028   13.6276 C.ar    1  UNL1        0.0848
      6 N          63.5921   85.7915   12.8610 N.ar    1  UNL1       -0.2755
      7 C          62.4267   85.8823   11.9210 C.ar    1  UNL1        0.3341
      8 O          61.9853   84.6709   11.1543 O.2     1  UNL1       -0.2462
      9 C          63.7508   89.5164   14.2210 C.ar    1  UNL1        0.0366
     10 C          63.5250   89.5900   15.7020 C.ar    1  UNL1        0.0026
     11 C          63.9663   90.8013   16.4687 C.ar    1  UNL1        0.0033
     12 C          64.6336   91.9391   15.7544 C.ar    1  UNL1        0.0392
     13 C          64.8594   91.8655   14.2733 C.ar    1  UNL1        0.1658
     14 C          64.4180   90.6541   13.5066 C.ar    1  UNL1        0.1739
     15 F          64.6438   90.5805   12.0255 F       1  UNL1       -0.2010
     16 O          65.5266   93.0033   13.5589 O.3     1  UNL1       -0.4732
     17 C          67.0230   93.1061   13.5456 C.3     1  UNL1        0.2055
     18 C          67.8539   91.9096   13.1876 C.3     1  UNL1        0.0477
     19 C          68.2859   91.6942   11.7675 C.3     1  UNL1        0.0097
     20 C          67.4869   92.2833   10.6430 C.3     1  UNL1        0.0418
     21 C          68.1857   92.9510    9.4958 C.2     1  UNL1        0.0503
     22 O          68.4146   94.4333    9.5174 O.co2   1  UNL1       -0.5492
     23 O          68.6555   92.1365    8.3271 O.co2   1  UNL1       -0.5492
     24 C          60.5372   87.2753   10.8076 C.3     1  UNL1        0.1334
     25 N          60.5442   88.9928    8.8583 N.3     1  UNL1       -0.3172
     26 C          60.7644   87.5966    9.3602 C.3     1  UNL1        0.0968
     27 H          60.2446   89.5883    9.6303 H       1  UNL1        0.1192
     28 H          59.8243   88.9849    8.1358 H       1  UNL1        0.1192
     29 C          61.2118   86.5215    8.4146 C.ar    1  UNL1       -0.0063
     30 C          60.2374   85.9236    7.4436 C.ar    1  UNL1       -0.0029
     31 C          60.6848   84.8486    6.4980 C.ar    1  UNL1       -0.0003
     32 C          62.1067   84.3715    6.5234 C.ar    1  UNL1       -0.0000
     33 C          63.0811   84.9695    7.4944 C.ar    1  UNL1       -0.0003
     34 C          62.6337   86.0444    8.4400 C.ar    1  UNL1       -0.0029
     35 C          64.3161   84.4893   13.0343 C.3     1  UNL1        0.1394
     36 C          63.5417   83.2093   13.1434 C.ar    1  UNL1        0.0319
     37 C          63.6129   82.1934   12.0419 C.ar    1  UNL1        0.1379
     38 F          64.4585   82.4577   10.8315 F       1  UNL1       -0.2044
     39 C          62.8385   80.9135   12.1510 C.ar    1  UNL1        0.0294
     40 C          61.9929   80.6492   13.3614 C.ar    1  UNL1        0.0022
     41 C          61.9218   81.6650   14.4628 C.ar    1  UNL1        0.0037
     42 C          62.6962   82.9451   14.3538 C.ar    1  UNL1        0.0714
     43 C          62.6250   83.9608   15.4552 C.3     1  UNL1        0.4184
     44 F          62.5538   84.9766   16.5566 F       1  UNL1       -0.1659
     45 F          61.3228   84.4642   14.9068 F       1  UNL1       -0.1659
     46 F          63.9272   83.4574   16.0036 F       1  UNL1       -0.1659
@<TRIPOS>UNITY_ATOM_ATTR
22 1
charge -1
@<TRIPOS>BOND
     1    26    25    1
     2    26    24    1
     3    24     1    1
     4     1     2   ar
     5     2     3    2
     6     2     4   ar
     7     4     9    1
     8     9    10   ar
     9    10    11   ar
    10    11    12   ar
    11    12    13   ar
    12    13    16    1
    13    16    17    1
    14    17    18    1
    15    18    19    1
    16    19    20    1
    17    20    21    1
    18    21    22   ar
    19    21    23   ar
    20    13    14   ar
    21    14    15    1
    22     4     5   ar
    23     5     6   ar
    24     6    35    1
    25    35    36    1
    26    36    37   ar
    27    37    38    1
    28    37    39   ar
    29    39    40   ar
    30    40    41   ar
    31    41    42   ar
    32    42    43    1
    33    43    44    1
    34    43    45    1
    35    43    46    1
    36     6     7   ar
    37     7     8    2
    38    26    29    1
    39    29    30   ar
    40    30    31   ar
    41    31    32   ar
    42    32    33   ar
    43    33    34   ar
    44     7     1   ar
    45    34    29   ar
    46    14     9   ar
    47    42    36   ar
    48    25    27    1
    49    25    28    1
@<TRIPOS>MOLECULE
*****
 46 49 0 0 0
SMALL
GASTEIGER

@<TRIPOS>ATOM
      1 N          63.2355   86.5165   13.4415 N.ar    1  UNL1       -0.2470
      2 C          63.6644   87.6294   14.3510 C.ar    1  UNL1        0.2657
      3 O          63.9996   87.3399   15.7841 O.2     1  UNL1       -0.2668
      4 C          63.7581   89.0319   13.8274 C.ar    1  UNL1        0.0759
      5 C          63.4230   89.3214   12.3943 C.ar    1  UNL1        0.0848
      6 N          62.9941   88.2084   11.4848 N.ar    1  UNL1       -0.2755
      7 C          62.9003   86.8060   12.0084 C.ar    1  UNL1        0.3341
      8 O          62.4714   85.6929   11.0988 O.2     1  UNL1       -0.2462
      9 C          64.1871   90.1450   14.7369 C.ar    1  UNL1        0.0366
     10 C          63.5027   90.3405   16.0573 C.ar    1  UNL1        0.0026
     11 C          63.9315   91.4535   16.9668 C.ar    1  UNL1        0.0033
     12 C          65.0448   92.3711   16.5560 C.ar    1  UNL1        0.0392
     13 C          65.7292   92.1756   15.2356 C.ar    1  UNL1        0.1658
     14 C          65.3003   91.0625   14.3261 C.ar    1  UNL1        0.1739
     15 F          65.9847   90.8670   13.0057 F       1  UNL1       -0.2010
     16 O          66.8425   93.0930   14.8248 O.3     1  UNL1       -0.4732
     17 C          66.5879   94.1788   13.8217 C.3     1  UNL1        0.2055
     18 C          66.5351   93.8511   12.3588 C.3     1  UNL1        0.0477
     19 C          65.9844   94.8509   11.3856 C.3     1  UNL1        0.0097
     20 C          66.9053   95.5612   10.4384 C.3     1  UNL1        0.0418
     21 C          67.5858   94.7986    9.3404 C.2     1  UNL1        0.0503
     22 O          68.7250   93.8772    9.6618 O.co2   1  UNL1       -0.5492
     23 O          67.1271   94.9573    7.9212 O.co2   1  UNL1       -0.5492
     24 C          63.1418   85.1139   13.9651 C.3     1  UNL1        0.1334
     25 N          65.5574   84.1927   14.2216 N.3     1  UNL1       -0.3172
     26 C          64.1931   84.1068   13.6041 C.3     1  UNL1        0.0968
     27 H          65.5934   84.9895   14.8573 H       1  UNL1        0.1192
     28 H          66.2559   84.3114   13.4877 H       1  UNL1        0.1192
     29 C          63.8802   83.0136   12.6257 C.ar    1  UNL1       -0.0063
     30 C          63.0902   81.8168   13.0657 C.ar    1  UNL1       -0.0029
     31 C          62.7773   80.7238   12.0873 C.ar    1  UNL1       -0.0003
     32 C          63.2543   80.8276   10.6689 C.ar    1  UNL1       -0.0000
     33 C          64.0443   82.0244   10.2290 C.ar    1  UNL1       -0.0003
     34 C          64.3572   83.1174   11.2074 C.ar    1  UNL1       -0.0029
     35 C          62.6589   88.4980   10.0516 C.3     1  UNL1        0.1394
     36 C          61.4878   87.8207    9.4037 C.ar    1  UNL1        0.0319
     37 C          61.7085   86.6496    8.4926 C.ar    1  UNL1        0.1379
     38 F          63.1002   86.1559    8.2295 F       1  UNL1       -0.2044
     39 C          60.5374   85.9724    7.8447 C.ar    1  UNL1        0.0294
     40 C          59.1456   86.4661    8.1078 C.ar    1  UNL1        0.0022
     41 C          58.9249   87.6371    9.0188 C.ar    1  UNL1        0.0037
     42 C          60.0961   88.3144    9.6668 C.ar    1  UNL1        0.0714
     43 C          59.8754   89.4854   10.5779 C.3     1  UNL1        0.4184
     44 F          59.6547   90.6564   11.4889 F       1  UNL1       -0.1659
     45 F          60.0360   90.4199    9.4156 F       1  UNL1       -0.1659
     46 F          59.7148   88.5509   11.7401 F       1  UNL1       -0.1659
@<TRIPOS>UNITY_ATOM_ATTR
22 1
charge -1
@<TRIPOS>BOND
     1    26    25    1
     2    26    24    1
     3    24     1    1
     4     1     2   ar
     5     2     3    2
     6     2     4   ar
     7     4     9    1
     8     9    10   ar
     9    10    11   ar
    10    11    12   ar
    11    12    13   ar
    12    13    16    1
    13    16    17    1
    14    17    18    1
    15    18    19    1
    16    19    20    1
    17    20    21    1
    18    21    22   ar
    19    21    23   ar
    20    13    14   ar
    21    14    15    1
    22     4     5   ar
    23     5     6   ar
    24     6    35    1
    25    35    36    1
    26    36    37   ar
    27    37    38    1
    28    37    39   ar
    29    39    40   ar
    30    40    41   ar
    31    41    42   ar
    32    42    43    1
    33    43    44    1
    34    43    45    1
    35    43    46    1
    36     6     7   ar
    37     7     8    2
    38    26    29    1
    39    29    30   ar
    40    30    31   ar
    41    31    32   ar
    42    32    33   ar
    43    33    34   ar
    44     7     1   ar
    45    34    29   ar
    46    14     9   ar
    47    42    36   ar
    48    25    27    1
    49    25    28    1
@<TRIPOS>MOLECULE
*****
 46 49 0 0 0
SMALL
GASTEIGER

@<TRIPOS>ATOM
      1 N          61.6129   87.4131   11.7639 N.ar    1  UNL1       -0.2470
      2 C          62.0982   88.5998   12.5425 C.ar    1  UNL1        0.2657
      3 O          61.4308   89.9323   12.3724 O.2     1  UNL1       -0.2668
      4 C          63.2508   88.4539   13.4913 C.ar    1  UNL1        0.0759
      5 C          63.9181   87.1213   13.6614 C.ar    1  UNL1        0.0848
      6 N          63.4329   85.9347   12.8827 N.ar    1  UNL1       -0.2755
      7 C          62.2803   86.0806   11.9340 C.ar    1  UNL1        0.3341
      8 O          61.7950   84.8939   11.1553 O.2     1  UNL1       -0.2462
      9 C          63.7361   89.6406   14.2700 C.ar    1  UNL1        0.0366
     10 C          63.4933   89.7179   15.7482 C.ar    1  UNL1        0.0026
     11 C          63.9786   90.9045   16.5269 C.ar    1  UNL1        0.0033
     12 C          64.7066   92.0139   15.8274 C.ar    1  UNL1        0.0392
     13 C          64.9494   91.9366   14.3492 C.ar    1  UNL1        0.1658
     14 C          64.4641   90.7499   13.5704 C.ar    1  UNL1        0.1739
     15 F          64.7068   90.6726   12.0922 F       1  UNL1       -0.2010
     16 O          65.6773   93.0460   13.6496 O.3     1  UNL1       -0.4732
     17 C          67.1770   93.0740   13.6467 C.3     1  UNL1        0.2055
     18 C          67.9489   91.8642   13.2099 C.3     1  UNL1        0.0477
     19 C          68.3503   91.7090   11.7730 C.3     1  UNL1        0.0097
     20 C          67.5198   92.3328   10.6908 C.3     1  UNL1        0.0418
     21 C          68.1861   92.9835    9.5149 C.2     1  UNL1        0.0503
     22 O          68.4050   94.4674    9.5034 O.co2   1  UNL1       -0.5492
     23 O          68.6336   92.1503    8.3507 O.co2   1  UNL1       -0.5492
     24 C          60.4603   87.5589   10.8151 C.3     1  UNL1        0.1334
     25 N          60.5255   89.1897    8.7936 N.3     1  UNL1       -0.3172
     26 C          60.7150   87.8133    9.3589 C.3     1  UNL1        0.0968
     27 H          60.2238   89.8229    9.5342 H       1  UNL1        0.1192
     28 H          59.8168   89.1616    8.0606 H       1  UNL1        0.1192
     29 C          61.1593   86.6912    8.4681 C.ar    1  UNL1       -0.0063
     30 C          60.1885   86.0626    7.5128 C.ar    1  UNL1       -0.0029
     31 C          60.6328   84.9406    6.6220 C.ar    1  UNL1       -0.0003
     32 C          62.0478   84.4471    6.6864 C.ar    1  UNL1       -0.0000
     33 C          63.0186   85.0756    7.6417 C.ar    1  UNL1       -0.0003
     34 C          62.5743   86.1977    8.5325 C.ar    1  UNL1       -0.0029
     35 C          64.1003   84.6021   13.0528 C.3     1  UNL1        0.1394
     36 C          63.2712   83.3683   13.2532 C.ar    1  UNL1        0.0319
     37 C          62.3964   83.2411   14.4651 C.ar    1  UNL1        0.1379
     38 F          62.3506   84.3479   15.4765 F       1  UNL1       -0.2044
     39 C          61.5673   82.0072   14.6654 C.ar    1  UNL1        0.0294
     40 C          61.6131   80.9005   13.6540 C.ar    1  UNL1        0.0022
     41 C          62.4879   81.0276   12.4422 C.ar    1  UNL1        0.0037
     42 C          63.3170   82.2615   12.2418 C.ar    1  UNL1        0.0714
     43 C          64.1918   82.3886   11.0300 C.3     1  UNL1        0.4184
     44 F          65.0666   82.5157    9.8182 F       1  UNL1       -0.1659
     45 F          65.4014   82.1187   11.8749 F       1  UNL1       -0.1659
     46 F          62.9822   82.6585   10.1851 F       1  UNL1       -0.1659
@<TRIPOS>UNITY_ATOM_ATTR
22 1
charge -1
@<TRIPOS>BOND
     1    26    25    1
     2    26    24    1
     3    24     1    1
     4     1     2   ar
     5     2     3    2
     6     2     4   ar
     7     4     9    1
     8     9    10   ar
     9    10    11   ar
    10    11    12   ar
    11    12    13   ar
    12    13    16    1
    13    16    17    1
    14    17    18    1
    15    18    19    1
    16    19    20    1
    17    20    21    1
    18    21    22   ar
    19    21    23   ar
    20    13    14   ar
    21    14    15    1
    22     4     5   ar
    23     5     6   ar
    24     6    35    1
    25    35    36    1
    26    36    37   ar
    27    37    38    1
    28    37    39   ar
    29    39    40   ar
    30    40    41   ar
    31    41    42   ar
    32    42    43    1
    33    43    44    1
    34    43    45    1
    35    43    46    1
    36     6     7   ar
    37     7     8    2
    38    26    29    1
    39    29    30   ar
    40    30    31   ar
    41    31    32   ar
    42    32    33   ar
    43    33    34   ar
    44     7     1   ar
    45    34    29   ar
    46    14     9   ar
    47    42    36   ar
    48    25    27    1
    49    25    28    1
@<TRIPOS>MOLECULE
*****
 46 49 0 0 0
SMALL
GASTEIGER

@<TRIPOS>ATOM
      1 N          63.2492   89.8312   13.4158 N.ar    1  UNL1       -0.2470
      2 C          63.5030   88.5135   14.0860 C.ar    1  UNL1        0.2657
      3 O          63.7866   88.4631   15.5581 O.2     1  UNL1       -0.2668
      4 C          63.4731   87.2462   13.2841 C.ar    1  UNL1        0.0759
      5 C          63.1895   87.2967   11.8120 C.ar    1  UNL1        0.0848
      6 N          62.9357   88.6144   11.1418 N.ar    1  UNL1       -0.2755
      7 C          62.9655   89.8816   11.9437 C.ar    1  UNL1        0.3341
      8 O          62.7117   91.1994   11.2735 O.2     1  UNL1       -0.2462
      9 C          63.7269   85.9284   13.9543 C.ar    1  UNL1        0.0366
     10 C          64.9477   85.7429   14.8059 C.ar    1  UNL1        0.0026
     11 C          65.2015   84.4252   15.4761 C.ar    1  UNL1        0.0033
     12 C          64.2345   83.2929   15.2946 C.ar    1  UNL1        0.0392
     13 C          63.0138   83.4784   14.4429 C.ar    1  UNL1        0.1658
     14 C          62.7600   84.7962   13.7728 C.ar    1  UNL1        0.1739
     15 F          61.5392   84.9816   12.9211 F       1  UNL1       -0.2010
     16 O          62.0468   82.3461   14.2615 O.3     1  UNL1       -0.4732
     17 C          62.5499   80.9351   14.1854 C.3     1  UNL1        0.2055
     18 C          62.2775   80.1064   12.9650 C.3     1  UNL1        0.0477
     19 C          63.0891   80.3143   11.7208 C.3     1  UNL1        0.0097
     20 C          62.8860   81.5466   10.8901 C.3     1  UNL1        0.0418
     21 C          63.8687   82.6770   10.9723 C.2     1  UNL1        0.0503
     22 O          63.6044   83.9557   10.2340 O.co2   1  UNL1       -0.5492
     23 O          65.1156   82.5285   11.7927 O.co2   1  UNL1       -0.5492
     24 C          63.2790   91.0986   14.2177 C.3     1  UNL1        0.1334
     25 N          63.6868   90.8797   16.7742 N.3     1  UNL1       -0.3172
     26 C          64.1918   91.2153   15.4022 C.3     1  UNL1        0.0968
     27 H          62.7096   90.5930   16.7161 H       1  UNL1        0.1192
     28 H          63.7653   91.6999   17.3755 H       1  UNL1        0.1192
     29 C          65.6097   91.6676   15.2148 C.ar    1  UNL1       -0.0063
     30 C          66.3472   91.3211   13.9555 C.ar    1  UNL1       -0.0029
     31 C          67.7650   91.7735   13.7681 C.ar    1  UNL1       -0.0003
     32 C          68.4453   92.5723   14.8401 C.ar    1  UNL1       -0.0000
     33 C          67.7078   92.9188   16.0994 C.ar    1  UNL1       -0.0003
     34 C          66.2900   92.4664   16.2868 C.ar    1  UNL1       -0.0029
     35 C          62.6520   88.6648    9.6698 C.3     1  UNL1        0.1394
     36 C          61.5608   87.8168    9.0867 C.ar    1  UNL1        0.0319
     37 C          61.9028   86.5511    8.3579 C.ar    1  UNL1        0.1379
     38 F          63.3362   86.1335    8.2121 F       1  UNL1       -0.2044
     39 C          60.8116   85.7030    7.7748 C.ar    1  UNL1        0.0294
     40 C          59.3783   86.1206    7.9206 C.ar    1  UNL1        0.0022
     41 C          59.0362   87.3862    8.6495 C.ar    1  UNL1        0.0037
     42 C          60.1275   88.2343    9.2325 C.ar    1  UNL1        0.0714
     43 C          59.7854   89.4999    9.9614 C.3     1  UNL1        0.4184
     44 F          59.4433   90.7655   10.6902 F       1  UNL1       -0.1659
     45 F          59.9079   90.2707    8.6804 F       1  UNL1       -0.1659
     46 F          59.6629   88.7291   11.2423 F       1  UNL1       -0.1659
@<TRIPOS>UNITY_ATOM_ATTR
22 1
charge -1
@<TRIPOS>BOND
     1    26    25    1
     2    26    24    1
     3    24     1    1
     4     1     2   ar
     5     2     3    2
     6     2     4   ar
     7     4     9    1
     8     9    10   ar
     9    10    11   ar
    10    11    12   ar
    11    12    13   ar
    12    13    16    1
    13    16    17    1
    14    17    18    1
    15    18    19    1
    16    19    20    1
    17    20    21    1
    18    21    22   ar
    19    21    23   ar
    20    13    14   ar
    21    14    15    1
    22     4     5   ar
    23     5     6   ar
    24     6    35    1
    25    35    36    1
    26    36    37   ar
    27    37    38    1
    28    37    39   ar
    29    39    40   ar
    30    40    41   ar
    31    41    42   ar
    32    42    43    1
    33    43    44    1
    34    43    45    1
    35    43    46    1
    36     6     7   ar
    37     7     8    2
    38    26    29    1
    39    29    30   ar
    40    30    31   ar
    41    31    32   ar
    42    32    33   ar
    43    33    34   ar
    44     7     1   ar
    45    34    29   ar
    46    14     9   ar
    47    42    36   ar
    48    25    27    1
    49    25    28    1
@<TRIPOS>MOLECULE
*****
 46 49 0 0 0
SMALL
GASTEIGER

@<TRIPOS>ATOM
      1 N          61.2964   87.6570    8.7611 N.ar    1  UNL1       -0.2470
      2 C          61.9194   86.3567    9.1745 C.ar    1  UNL1        0.2657
      3 O          61.8656   85.1733    8.2544 O.2     1  UNL1       -0.2668
      4 C          62.5964   86.2399   10.5079 C.ar    1  UNL1        0.0759
      5 C          62.6503   87.4234   11.4279 C.ar    1  UNL1        0.0848
      6 N          62.0272   88.7237   11.0145 N.ar    1  UNL1       -0.2755
      7 C          61.3502   88.8405    9.6811 C.ar    1  UNL1        0.3341
      8 O          60.7271   90.1409    9.2677 O.2     1  UNL1       -0.2462
      9 C          63.2195   84.9396   10.9213 C.ar    1  UNL1        0.0366
     10 C          63.4284   83.8526    9.9089 C.ar    1  UNL1        0.0026
     11 C          64.0515   82.5523   10.3223 C.ar    1  UNL1        0.0033
     12 C          64.4658   82.3389   11.7481 C.ar    1  UNL1        0.0392
     13 C          64.2569   83.4258   12.7605 C.ar    1  UNL1        0.1658
     14 C          63.6337   84.7262   12.3471 C.ar    1  UNL1        0.1739
     15 F          63.4249   85.8131   13.3595 F       1  UNL1       -0.2010
     16 O          64.6711   83.2125   14.1863 O.3     1  UNL1       -0.4732
     17 C          63.7971   83.7025   15.3025 C.3     1  UNL1        0.2055
     18 C          62.3680   83.2545   15.3881 C.3     1  UNL1        0.0477
     19 C          61.7160   82.5978   14.2077 C.3     1  UNL1        0.0097
     20 C          61.5405   81.1084   14.1803 C.3     1  UNL1        0.0418
     21 C          62.6318   80.2345   13.6366 C.2     1  UNL1        0.0503
     22 O          63.8930   80.0327   14.4232 O.co2   1  UNL1       -0.5492
     23 O          62.4619   79.5625   12.3064 O.co2   1  UNL1       -0.5492
     24 C          60.6193   87.7739    7.4276 C.3     1  UNL1        0.1334
     25 N          58.1272   87.9008    8.1509 N.3     1  UNL1       -0.3172
     26 C          59.2685   88.4179    7.3262 C.3     1  UNL1        0.0968
     27 H          58.4462   87.1154    8.7182 H       1  UNL1        0.1192
     28 H          57.3751   87.5920    7.5350 H       1  UNL1        0.1192
     29 C          59.0588   89.5792    6.4001 C.ar    1  UNL1       -0.0063
     30 C          60.2383   90.2577    5.7691 C.ar    1  UNL1       -0.0029
     31 C          60.0286   91.4189    4.8430 C.ar    1  UNL1       -0.0003
     32 C          58.6393   91.9015    4.5480 C.ar    1  UNL1       -0.0000
     33 C          57.4598   91.2229    5.1790 C.ar    1  UNL1       -0.0003
     34 C          57.6695   90.0618    6.1050 C.ar    1  UNL1       -0.0029
     35 C          62.0811   89.9072   11.9346 C.3     1  UNL1        0.1394
     36 C          63.3434   90.7088   12.0523 C.ar    1  UNL1        0.0319
     37 C          63.7953   91.5686   10.9092 C.ar    1  UNL1        0.1379
     38 F          62.9847   91.6268    9.6484 F       1  UNL1       -0.2044
     39 C          65.0576   92.3702   11.0270 C.ar    1  UNL1        0.0294
     40 C          65.8682   92.3120   12.2878 C.ar    1  UNL1        0.0022
     41 C          65.4164   91.4522   13.4308 C.ar    1  UNL1        0.0037
     42 C          64.1540   90.6506   13.3131 C.ar    1  UNL1        0.0714
     43 C          63.7022   89.7908   14.4562 C.3     1  UNL1        0.4184
     44 F          63.2504   88.9311   15.5993 F       1  UNL1       -0.1659
     45 F          64.2730   88.5833   13.7736 F       1  UNL1       -0.1659
     46 F          63.1313   90.9983   15.1388 F       1  UNL1       -0.1659
@<TRIPOS>UNITY_ATOM_ATTR
22 1
charge -1
@<TRIPOS>BOND
     1    26    25    1
     2    26    24    1
     3    24     1    1
     4     1     2   ar
     5     2     3    2
     6     2     4   ar
     7     4     9    1
     8     9    10   ar
     9    10    11   ar
    10    11    12   ar
    11    12    13   ar
    12    13    16    1
    13    16    17    1
    14    17    18    1
    15    18    19    1
    16    19    20    1
    17    20    21    1
    18    21    22   ar
    19    21    23   ar
    20    13    14   ar
    21    14    15    1
    22     4     5   ar
    23     5     6   ar
    24     6    35    1
    25    35    36    1
    26    36    37   ar
    27    37    38    1
    28    37    39   ar
    29    39    40   ar
    30    40    41   ar
    31    41    42   ar
    32    42    43    1
    33    43    44    1
    34    43    45    1
    35    43    46    1
    36     6     7   ar
    37     7     8    2
    38    26    29    1
    39    29    30   ar
    40    30    31   ar
    41    31    32   ar
    42    32    33   ar
    43    33    34   ar
    44     7     1   ar
    45    34    29   ar
    46    14     9   ar
    47    42    36   ar
    48    25    27    1
    49    25    28    1
@<TRIPOS>MOLECULE
*****
 46 49 0 0 0
SMALL
GASTEIGER

@<TRIPOS>ATOM
      1 N          60.3968   89.0450    9.4824 N.ar    1  UNL1       -0.2470
      2 C          61.4417   89.9626   10.0447 C.ar    1  UNL1        0.2657
      3 O          61.4795   91.4024    9.6255 O.2     1  UNL1       -0.2668
      4 C          62.4487   89.4405   11.0261 C.ar    1  UNL1        0.0759
      5 C          62.4108   88.0007   11.4453 C.ar    1  UNL1        0.0848
      6 N          61.3659   87.0831   10.8830 N.ar    1  UNL1       -0.2755
      7 C          60.3589   87.6053    9.9015 C.ar    1  UNL1        0.3341
      8 O          59.3140   86.6876    9.3392 O.2     1  UNL1       -0.2462
      9 C          63.4936   90.3581   11.5884 C.ar    1  UNL1        0.0366
     10 C          64.1353   91.3914   10.7106 C.ar    1  UNL1        0.0026
     11 C          65.1801   92.3090   11.2729 C.ar    1  UNL1        0.0033
     12 C          65.5834   92.1933   12.7131 C.ar    1  UNL1        0.0392
     13 C          64.9417   91.1600   13.5909 C.ar    1  UNL1        0.1658
     14 C          63.8968   90.2424   13.0286 C.ar    1  UNL1        0.1739
     15 F          63.2551   89.2092   13.9064 F       1  UNL1       -0.2010
     16 O          65.3450   91.0444   15.0310 O.3     1  UNL1       -0.4732
     17 C          64.4372   91.5606   16.1078 C.3     1  UNL1        0.2055
     18 C          63.4506   90.6395   16.7624 C.3     1  UNL1        0.0477
     19 C          63.4760   89.1718   16.4542 C.3     1  UNL1        0.0097
     20 C          62.9549   88.1858   17.4573 C.3     1  UNL1        0.0418
     21 C          62.7491   86.7530   17.0635 C.2     1  UNL1        0.0503
     22 O          63.9027   85.9431   16.5504 O.co2   1  UNL1       -0.5492
     23 O          61.3897   86.1302   17.1829 O.co2   1  UNL1       -0.5492
     24 C          59.3897   89.5671    8.5009 C.3     1  UNL1        0.1334
     25 N          59.5622   87.7086    6.6936 N.3     1  UNL1       -0.3172
     26 C          59.4667   89.1603    7.0592 C.3     1  UNL1        0.0968
     27 H          59.5622   87.1435    7.5428 H       1  UNL1        0.1192
     28 H          60.4256   87.5445    6.1760 H       1  UNL1        0.1192
     29 C          59.4482   90.2051    5.9830 C.ar    1  UNL1       -0.0063
     30 C          60.7307   90.6410    5.3388 C.ar    1  UNL1       -0.0029
     31 C          60.7122   91.6857    4.2626 C.ar    1  UNL1       -0.0003
     32 C          59.4111   92.2946    3.8307 C.ar    1  UNL1       -0.0000
     33 C          58.1286   91.8587    4.4750 C.ar    1  UNL1       -0.0003
     34 C          58.1471   90.8139    5.5511 C.ar    1  UNL1       -0.0029
     35 C          61.3281   85.6434   11.3021 C.3     1  UNL1        0.1394
     36 C          62.4836   84.7401   10.9877 C.ar    1  UNL1        0.0319
     37 C          62.9945   84.6377    9.5811 C.ar    1  UNL1        0.1379
     38 F          62.3499   85.4387    8.4889 F       1  UNL1       -0.2044
     39 C          64.1500   83.7345    9.2667 C.ar    1  UNL1        0.0294
     40 C          64.7946   82.9335   10.3589 C.ar    1  UNL1        0.0022
     41 C          64.2837   83.0358   11.7655 C.ar    1  UNL1        0.0037
     42 C          63.1282   83.9391   12.0799 C.ar    1  UNL1        0.0714
     43 C          62.6173   84.0414   13.4865 C.3     1  UNL1        0.4184
     44 F          62.1064   84.1437   14.8931 F       1  UNL1       -0.1659
     45 F          63.2386   85.4007   13.6133 F       1  UNL1       -0.1659
     46 F          61.9960   82.6820   13.3597 F       1  UNL1       -0.1659
@<TRIPOS>UNITY_ATOM_ATTR
22 1
charge -1
@<TRIPOS>BOND
     1    26    25    1
     2    26    24    1
     3    24     1    1
     4     1     2   ar
     5     2     3    2
     6     2     4   ar
     7     4     9    1
     8     9    10   ar
     9    10    11   ar
    10    11    12   ar
    11    12    13   ar
    12    13    16    1
    13    16    17    1
    14    17    18    1
    15    18    19    1
    16    19    20    1
    17    20    21    1
    18    21    22   ar
    19    21    23   ar
    20    13    14   ar
    21    14    15    1
    22     4     5   ar
    23     5     6   ar
    24     6    35    1
    25    35    36    1
    26    36    37   ar
    27    37    38    1
    28    37    39   ar
    29    39    40   ar
    30    40    41   ar
    31    41    42   ar
    32    42    43    1
    33    43    44    1
    34    43    45    1
    35    43    46    1
    36     6     7   ar
    37     7     8    2
    38    26    29    1
    39    29    30   ar
    40    30    31   ar
    41    31    32   ar
    42    32    33   ar
    43    33    34   ar
    44     7     1   ar
    45    34    29   ar
    46    14     9   ar
    47    42    36   ar
    48    25    27    1
    49    25    28    1
@<TRIPOS>MOLECULE
*****
 46 49 0 0 0
SMALL
GASTEIGER

@<TRIPOS>ATOM
      1 N          60.6692   89.2002    9.8770 N.ar    1  UNL1       -0.2470
      2 C          61.7032   90.0756   10.5207 C.ar    1  UNL1        0.2657
      3 O          61.7877   91.5284   10.1570 O.2     1  UNL1       -0.2668
      4 C          62.6529   89.4982   11.5280 C.ar    1  UNL1        0.0759
      5 C          62.5685   88.0454   11.8917 C.ar    1  UNL1        0.0848
      6 N          61.5344   87.1700   11.2480 N.ar    1  UNL1       -0.2755
      7 C          60.5848   87.7474   10.2407 C.ar    1  UNL1        0.3341
      8 O          59.5506   86.8720    9.5970 O.2     1  UNL1       -0.2462
      9 C          63.6871   90.3736   12.1717 C.ar    1  UNL1        0.0366
     10 C          63.9984   90.2181   13.6307 C.ar    1  UNL1        0.0026
     11 C          65.0325   91.0934   14.2744 C.ar    1  UNL1        0.0033
     12 C          65.7553   92.1244   13.4591 C.ar    1  UNL1        0.0392
     13 C          65.4439   92.2799   12.0000 C.ar    1  UNL1        0.1658
     14 C          64.4098   91.4045   11.3563 C.ar    1  UNL1        0.1739
     15 F          64.0984   91.5601    9.8972 F       1  UNL1       -0.2010
     16 O          66.1666   93.3108   11.1846 O.3     1  UNL1       -0.4732
     17 C          67.2148   92.8874   10.1987 C.3     1  UNL1        0.2055
     18 C          67.8482   93.9033    9.2948 C.3     1  UNL1        0.0477
     19 C          67.0536   95.0832    8.8193 C.3     1  UNL1        0.0097
     20 C          66.9891   96.3289    9.6524 C.3     1  UNL1        0.0418
     21 C          65.7626   96.6262   10.4633 C.2     1  UNL1        0.0503
     22 O          65.8512   96.6957   11.9591 O.co2   1  UNL1       -0.5492
     23 O          64.4477   96.8539    9.7785 O.co2   1  UNL1       -0.5492
     24 C          59.7194   89.7776    8.8697 C.3     1  UNL1        0.1334
     25 N          60.0032   87.8115    7.1952 N.3     1  UNL1       -0.3172
     26 C          59.7119   89.2585    7.4624 C.3     1  UNL1        0.0968
     27 H          60.1826   87.3322    8.0775 H       1  UNL1        0.1192
     28 H          60.8236   87.7352    6.5939 H       1  UNL1        0.1192
     29 C          59.4131   90.1863    6.3223 C.ar    1  UNL1       -0.0063
     30 C          57.9941   90.5607    6.0122 C.ar    1  UNL1       -0.0029
     31 C          57.6954   91.4886    4.8721 C.ar    1  UNL1       -0.0003
     32 C          58.8156   92.0420    4.0421 C.ar    1  UNL1       -0.0000
     33 C          60.2346   91.6676    4.3523 C.ar    1  UNL1       -0.0003
     34 C          60.5333   90.7398    5.4924 C.ar    1  UNL1       -0.0029
     35 C          61.4500   85.7172   11.6117 C.3     1  UNL1        0.1394
     36 C          62.5415   84.7756   11.1970 C.ar    1  UNL1        0.0319
     37 C          62.9758   84.7161    9.7624 C.ar    1  UNL1        0.1379
     38 F          62.3185   85.5982    8.7426 F       1  UNL1       -0.2044
     39 C          64.0672   83.7745    9.3476 C.ar    1  UNL1        0.0294
     40 C          64.7245   82.8924   10.3674 C.ar    1  UNL1        0.0022
     41 C          64.2902   82.9519   11.8019 C.ar    1  UNL1        0.0037
     42 C          63.1987   83.8935   12.2167 C.ar    1  UNL1        0.0714
     43 C          62.7645   83.9530   13.6512 C.3     1  UNL1        0.4184
     44 F          62.3303   84.0125   15.0857 F       1  UNL1       -0.1659
     45 F          63.5145   85.2403   13.8249 F       1  UNL1       -0.1659
     46 F          62.0145   82.6657   13.4776 F       1  UNL1       -0.1659
@<TRIPOS>UNITY_ATOM_ATTR
22 1
charge -1
@<TRIPOS>BOND
     1    26    25    1
     2    26    24    1
     3    24     1    1
     4     1     2   ar
     5     2     3    2
     6     2     4   ar
     7     4     9    1
     8     9    10   ar
     9    10    11   ar
    10    11    12   ar
    11    12    13   ar
    12    13    16    1
    13    16    17    1
    14    17    18    1
    15    18    19    1
    16    19    20    1
    17    20    21    1
    18    21    22   ar
    19    21    23   ar
    20    13    14   ar
    21    14    15    1
    22     4     5   ar
    23     5     6   ar
    24     6    35    1
    25    35    36    1
    26    36    37   ar
    27    37    38    1
    28    37    39   ar
    29    39    40   ar
    30    40    41   ar
    31    41    42   ar
    32    42    43    1
    33    43    44    1
    34    43    45    1
    35    43    46    1
    36     6     7   ar
    37     7     8    2
    38    26    29    1
    39    29    30   ar
    40    30    31   ar
    41    31    32   ar
    42    32    33   ar
    43    33    34   ar
    44     7     1   ar
    45    34    29   ar
    46    14     9   ar
    47    42    36   ar
    48    25    27    1
    49    25    28    1
