@<TRIPOS>MOLECULE
*****
 35 37 0 0 0
SMALL
GASTEIGER

@<TRIPOS>ATOM
      1 C          63.3970   84.6878   13.1219 C.3     1  UNL1        0.3254
      2 F          62.0368   85.0825   13.6163 F       1  UNL1       -0.1949
      3 F          64.6246   84.4080   12.3067 F       1  UNL1       -0.1949
      4 C          62.6987   85.1971   11.8958 C.ar    1  UNL1        0.1218
      5 C          63.0905   84.6838   10.5419 C.ar    1  UNL1        0.0202
      6 C          62.3923   85.1931    9.3159 C.ar    1  UNL1        0.0029
      7 C          61.3024   86.2157    9.4438 C.ar    1  UNL1        0.0189
      8 C          60.9106   86.7290   10.7977 C.ar    1  UNL1        0.0986
      9 N          61.6088   86.2197   12.0237 N.ar    1  UNL1       -0.2427
     10 C          60.6042   86.7250    8.2178 C.2     1  UNL1       -0.0005
     11 C          59.7546   87.9587    8.2965 C.2     1  UNL1        0.0057
     12 C          59.0564   88.4681    7.0705 C.3     1  UNL1        0.1687
     13 O          59.5670   89.6926    6.3708 O.3     1  UNL1       -0.3408
     14 C          58.6176   90.5773    5.6184 C.3     1  UNL1        0.2461
     15 C          59.1386   91.7589    4.8552 C.3     1  UNL1        0.4248
     16 F          59.6595   92.9404    4.0919 F       1  UNL1       -0.1674
     17 F          57.7441   92.2994    4.7402 F       1  UNL1       -0.1674
     18 F          60.5331   91.2184    4.9702 F       1  UNL1       -0.1674
     19 O          64.7932   83.6692   15.5740 O.3     1  UNL1       -0.3755
     20 C          64.0951   84.1785   14.3479 C.3     1  UNL1        0.1932
     21 H          65.0882   84.4196   16.1132 H       1  UNL1        0.2110
     22 C          63.8904   85.5059   15.0159 C.ar    1  UNL1        0.0368
     23 C          64.5211   86.7397   14.4415 C.ar    1  UNL1        0.0028
     24 C          64.3164   88.0671   15.1094 C.ar    1  UNL1        0.0295
     25 C          63.4812   88.1607   16.3518 C.ar    1  UNL1        0.1424
     26 F          63.2765   89.4881   17.0198 F       1  UNL1       -0.2041
     27 C          62.8506   86.9268   16.9262 C.ar    1  UNL1        0.0590
     28 C          63.0552   85.5995   16.2583 C.ar    1  UNL1        0.1408
     29 F          62.4245   84.3657   16.8328 F       1  UNL1       -0.2043
     30 C          64.2997   82.8511   13.6800 C.3     1  UNL1        0.1679
     31 N          63.2080   81.8228   13.7047 N.ar    1  UNL1       -0.2078
     32 C          63.1175   80.6116   12.8245 C.ar    1  UNL1        0.2216
     33 N          61.8686   79.8654   13.1898 N.ar    1  UNL1       -0.1048
     34 N          61.1872   80.6153   14.2958 N.ar    1  UNL1       -0.0226
     35 N          62.0150   81.8251   14.6140 N.ar    1  UNL1       -0.0428
@<TRIPOS>BOND
     1    19    20    1
     2    20    30    1
     3    30    31    1
     4    31    32   ar
     5    32    33   ar
     6    33    34   ar
     7    34    35   ar
     8    20    22    1
     9    22    23   ar
    10    23    24   ar
    11    24    25   ar
    12    25    26    1
    13    25    27   ar
    14    27    28   ar
    15    28    29    1
    16    20     1    1
    17     1     2    1
    18     1     3    1
    19     1     4    1
    20     4     5   ar
    21     5     6   ar
    22     6     7   ar
    23     7    10    1
    24    10    11    2
    25    11    12    1
    26    12    13    1
    27    13    14    1
    28    14    15    1
    29    15    16    1
    30    15    17    1
    31    15    18    1
    32     7     8   ar
    33     8     9   ar
    34    35    31   ar
    35    28    22   ar
    36     9     4   ar
    37    19    21    1
@<TRIPOS>MOLECULE
*****
 35 37 0 0 0
SMALL
GASTEIGER

@<TRIPOS>ATOM
      1 C          63.3794   84.6053   12.8821 C.3     1  UNL1        0.3254
      2 F          62.0222   84.9951   13.3883 F       1  UNL1       -0.1949
      3 F          64.6059   84.3434   12.0593 F       1  UNL1       -0.1949
      4 C          62.6889   85.1663   11.6744 C.ar    1  UNL1        0.1218
      5 C          63.1134   84.7377   10.3010 C.ar    1  UNL1        0.0202
      6 C          62.4228   85.2988    9.0933 C.ar    1  UNL1        0.0029
      7 C          61.3078   86.2884    9.2590 C.ar    1  UNL1        0.0189
      8 C          60.8833   86.7169   10.6325 C.ar    1  UNL1        0.0986
      9 N          61.5738   86.1559   11.8401 N.ar    1  UNL1       -0.2427
     10 C          60.6173   86.8494    8.0514 C.2     1  UNL1       -0.0005
     11 C          59.7630   88.0758    8.1781 C.2     1  UNL1        0.0057
     12 C          59.0725   88.6368    6.9705 C.3     1  UNL1        0.1687
     13 O          59.5181   89.9475    6.3930 O.3     1  UNL1       -0.3408
     14 C          58.5309   90.8319    5.6904 C.3     1  UNL1        0.2461
     15 C          58.9809   91.7061    4.5576 C.3     1  UNL1        0.4248
     16 F          59.4308   92.5804    3.4248 F       1  UNL1       -0.1674
     17 F          57.5500   91.9923    4.2101 F       1  UNL1       -0.1674
     18 F          60.4117   91.4199    4.9050 F       1  UNL1       -0.1674
     19 O          64.7603   83.4833   15.2974 O.3     1  UNL1       -0.3755
     20 C          64.0698   84.0443   14.0898 C.3     1  UNL1        0.1932
     21 H          64.2515   82.7323   15.6410 H       1  UNL1        0.2110
     22 C          63.3072   82.7624   13.9304 C.ar    1  UNL1        0.0368
     23 C          61.9957   82.5775   14.6345 C.ar    1  UNL1        0.0028
     24 C          61.2331   81.2957   14.4752 C.ar    1  UNL1        0.0295
     25 C          61.7820   80.1989   13.6117 C.ar    1  UNL1        0.1424
     26 F          61.0193   78.9170   13.4523 F       1  UNL1       -0.2041
     27 C          63.0934   80.3838   12.9075 C.ar    1  UNL1        0.0590
     28 C          63.8561   81.6656   13.0669 C.ar    1  UNL1        0.1408
     29 F          65.1675   81.8505   12.3627 F       1  UNL1       -0.2043
     30 C          64.8324   85.3260   14.2492 C.3     1  UNL1        0.1679
     31 N          64.2268   86.4698   15.0075 N.ar    1  UNL1       -0.2078
     32 C          64.2986   87.9182   14.6243 C.ar    1  UNL1        0.2216
     33 N          63.5591   88.7095   15.6621 N.ar    1  UNL1       -0.1048
     34 N          63.0303   87.7501   16.6867 N.ar    1  UNL1       -0.0226
     35 N          63.4429   86.3659   16.2821 N.ar    1  UNL1       -0.0428
@<TRIPOS>BOND
     1    19    20    1
     2    20    30    1
     3    30    31    1
     4    31    32   ar
     5    32    33   ar
     6    33    34   ar
     7    34    35   ar
     8    20    22    1
     9    22    23   ar
    10    23    24   ar
    11    24    25   ar
    12    25    26    1
    13    25    27   ar
    14    27    28   ar
    15    28    29    1
    16    20     1    1
    17     1     2    1
    18     1     3    1
    19     1     4    1
    20     4     5   ar
    21     5     6   ar
    22     6     7   ar
    23     7    10    1
    24    10    11    2
    25    11    12    1
    26    12    13    1
    27    13    14    1
    28    14    15    1
    29    15    16    1
    30    15    17    1
    31    15    18    1
    32     7     8   ar
    33     8     9   ar
    34    35    31   ar
    35    28    22   ar
    36     9     4   ar
    37    19    21    1
@<TRIPOS>MOLECULE
*****
 35 37 0 0 0
SMALL
GASTEIGER

@<TRIPOS>ATOM
      1 C          63.2580   85.5109   12.8860 C.3     1  UNL1        0.3254
      2 F          62.1252   84.6599   12.3932 F       1  UNL1       -0.1949
      3 F          64.2448   86.6088   13.1521 F       1  UNL1       -0.1949
      4 C          62.5335   86.3970   11.9164 C.ar    1  UNL1        0.1218
      5 C          61.6061   85.7975   10.9013 C.ar    1  UNL1        0.0202
      6 C          60.8815   86.6836    9.9318 C.ar    1  UNL1        0.0029
      7 C          61.0844   88.1691    9.9774 C.ar    1  UNL1        0.0189
      8 C          62.0119   88.7686   10.9926 C.ar    1  UNL1        0.0986
      9 N          62.7364   87.8825   11.9620 N.ar    1  UNL1       -0.2427
     10 C          60.3600   89.0552    9.0079 C.2     1  UNL1       -0.0005
     11 C          59.7049   88.4627    7.7955 C.2     1  UNL1        0.0057
     12 C          58.9804   89.3488    6.8260 C.3     1  UNL1        0.1687
     13 O          59.7345   90.0233    5.7186 O.3     1  UNL1       -0.3408
     14 C          59.1947   91.2787    5.0999 C.3     1  UNL1        0.2461
     15 C          59.9777   91.9861    4.0339 C.3     1  UNL1        0.4248
     16 F          60.7608   92.6935    2.9678 F       1  UNL1       -0.1674
     17 F          61.2540   91.4664    4.6264 F       1  UNL1       -0.1674
     18 F          58.7015   92.5059    3.4413 F       1  UNL1       -0.1674
     19 O          64.7070   83.7388   14.8250 O.3     1  UNL1       -0.3755
     20 C          63.9825   84.6249   13.8555 C.3     1  UNL1        0.1932
     21 H          64.4356   82.8179   14.6864 H       1  UNL1        0.2110
     22 C          63.6845   83.4355   12.9913 C.ar    1  UNL1        0.0368
     23 C          64.3548   83.2910   11.6572 C.ar    1  UNL1        0.0028
     24 C          64.0567   82.1017   10.7931 C.ar    1  UNL1        0.0295
     25 C          63.0884   81.0570   11.2630 C.ar    1  UNL1        0.1424
     26 F          62.7903   79.8677   10.3989 F       1  UNL1       -0.2041
     27 C          62.4181   81.2016   12.5971 C.ar    1  UNL1        0.0590
     28 C          62.7161   82.3908   13.4613 C.ar    1  UNL1        0.1408
     29 F          62.0458   82.5354   14.7954 F       1  UNL1       -0.2043
     30 C          64.2806   85.8141   14.7196 C.3     1  UNL1        0.1679
     31 N          63.3822   86.1465   15.8739 N.ar    1  UNL1       -0.2078
     32 C          63.3838   87.4292   16.6516 C.ar    1  UNL1        0.2216
     33 N          62.3271   87.3300   17.7115 N.ar    1  UNL1       -0.1048
     34 N          61.6724   85.9860   17.5890 N.ar    1  UNL1       -0.0226
     35 N          62.3245   85.2546   16.4533 N.ar    1  UNL1       -0.0428
@<TRIPOS>BOND
     1    19    20    1
     2    20    30    1
     3    30    31    1
     4    31    32   ar
     5    32    33   ar
     6    33    34   ar
     7    34    35   ar
     8    20    22    1
     9    22    23   ar
    10    23    24   ar
    11    24    25   ar
    12    25    26    1
    13    25    27   ar
    14    27    28   ar
    15    28    29    1
    16    20     1    1
    17     1     2    1
    18     1     3    1
    19     1     4    1
    20     4     5   ar
    21     5     6   ar
    22     6     7   ar
    23     7    10    1
    24    10    11    2
    25    11    12    1
    26    12    13    1
    27    13    14    1
    28    14    15    1
    29    15    16    1
    30    15    17    1
    31    15    18    1
    32     7     8   ar
    33     8     9   ar
    34    35    31   ar
    35    28    22   ar
    36     9     4   ar
    37    19    21    1
@<TRIPOS>MOLECULE
*****
 35 37 0 0 0
SMALL
GASTEIGER

@<TRIPOS>ATOM
      1 C          63.8581   88.9556   13.7035 C.3     1  UNL1        0.3254
      2 F          63.8394   88.4635   12.2866 F       1  UNL1       -0.1949
      3 F          63.8652   89.0904   15.1974 F       1  UNL1       -0.1949
      4 C          63.8094   87.4624   13.8385 C.ar    1  UNL1        0.1218
      5 C          64.4208   86.7972   15.0358 C.ar    1  UNL1        0.0202
      6 C          64.3721   85.3040   15.1708 C.ar    1  UNL1        0.0029
      7 C          63.7120   84.4761   14.1083 C.ar    1  UNL1        0.0189
      8 C          63.1006   85.1414   12.9109 C.ar    1  UNL1        0.0986
      9 N          63.1493   86.6345   12.7760 N.ar    1  UNL1       -0.2427
     10 C          63.6633   82.9830   14.2432 C.2     1  UNL1       -0.0005
     11 C          62.3591   82.2582   14.0892 C.2     1  UNL1        0.0057
     12 C          62.3104   80.7651   14.2241 C.3     1  UNL1        0.1687
     13 O          62.3255   79.9004   12.9985 O.3     1  UNL1       -0.3408
     14 C          63.1770   80.2800   11.8233 C.3     1  UNL1        0.2461
     15 C          62.8385   79.7669   10.4550 C.3     1  UNL1        0.4248
     16 F          62.5000   79.2538    9.0867 F       1  UNL1       -0.1674
     17 F          62.6080   78.3987   11.0251 F       1  UNL1       -0.1674
     18 F          63.0689   81.1351    9.8850 F       1  UNL1       -0.1674
     19 O          63.9555   91.9418   13.4336 O.3     1  UNL1       -0.3755
     20 C          63.9068   90.4487   13.5685 C.3     1  UNL1        0.1932
     21 H          63.6060   92.1996   12.5662 H       1  UNL1        0.2110
     22 C          62.8969   90.3816   12.4615 C.ar    1  UNL1        0.0368
     23 C          61.5139   89.8708   12.7379 C.ar    1  UNL1        0.0028
     24 C          60.5039   89.8037   11.6309 C.ar    1  UNL1        0.0295
     25 C          60.8770   90.2474   10.2475 C.ar    1  UNL1        0.1424
     26 F          59.8670   90.1803    9.1404 F       1  UNL1       -0.2041
     27 C          62.2600   90.7581    9.9710 C.ar    1  UNL1        0.0590
     28 C          63.2699   90.8252   11.0780 C.ar    1  UNL1        0.1408
     29 F          64.6529   91.3360   10.8016 F       1  UNL1       -0.2043
     30 C          64.9167   90.5158   14.6756 C.3     1  UNL1        0.1679
     31 N          65.9942   91.5589   14.6456 N.ar    1  UNL1       -0.2078
     32 C          66.3711   92.4699   15.7761 C.ar    1  UNL1        0.2216
     33 N          67.4938   93.3483   15.3090 N.ar    1  UNL1       -0.1048
     34 N          67.8108   92.9801   13.8899 N.ar    1  UNL1       -0.0226
     35 N          66.8840   91.8742   13.4799 N.ar    1  UNL1       -0.0428
@<TRIPOS>BOND
     1    19    20    1
     2    20    30    1
     3    30    31    1
     4    31    32   ar
     5    32    33   ar
     6    33    34   ar
     7    34    35   ar
     8    20    22    1
     9    22    23   ar
    10    23    24   ar
    11    24    25   ar
    12    25    26    1
    13    25    27   ar
    14    27    28   ar
    15    28    29    1
    16    20     1    1
    17     1     2    1
    18     1     3    1
    19     1     4    1
    20     4     5   ar
    21     5     6   ar
    22     6     7   ar
    23     7    10    1
    24    10    11    2
    25    11    12    1
    26    12    13    1
    27    13    14    1
    28    14    15    1
    29    15    16    1
    30    15    17    1
    31    15    18    1
    32     7     8   ar
    33     8     9   ar
    34    35    31   ar
    35    28    22   ar
    36     9     4   ar
    37    19    21    1
@<TRIPOS>MOLECULE
*****
 35 37 0 0 0
SMALL
GASTEIGER

@<TRIPOS>ATOM
      1 C          63.8936   88.9828   13.6661 C.3     1  UNL1        0.3254
      2 F          63.7086   88.4796   12.2651 F       1  UNL1       -0.1949
      3 F          64.0770   89.1293   15.1476 F       1  UNL1       -0.1949
      4 C          63.8646   87.4906   13.8172 C.ar    1  UNL1        0.1218
      5 C          64.5205   86.8438   15.0009 C.ar    1  UNL1        0.0202
      6 C          64.4915   85.3516   15.1520 C.ar    1  UNL1        0.0029
      7 C          63.8065   84.5064   14.1194 C.ar    1  UNL1        0.0189
      8 C          63.1505   85.1534   12.9356 C.ar    1  UNL1        0.0986
      9 N          63.1796   86.6454   12.7845 N.ar    1  UNL1       -0.2427
     10 C          63.7774   83.0144   14.2704 C.2     1  UNL1       -0.0005
     11 C          63.6529   82.1401   13.0580 C.2     1  UNL1        0.0057
     12 C          63.6239   80.6480   13.2090 C.3     1  UNL1        0.1687
     13 O          62.3351   79.9012   13.0318 O.3     1  UNL1       -0.3408
     14 C          61.4107   79.7132   14.1981 C.3     1  UNL1        0.2461
     15 C          60.0149   80.2600   14.1445 C.3     1  UNL1        0.4248
     16 F          58.6191   80.8068   14.0908 F       1  UNL1       -0.1674
     17 F          60.5625   81.6564   14.1294 F       1  UNL1       -0.1674
     18 F          59.4673   78.8636   14.1595 F       1  UNL1       -0.1674
     19 O          63.9517   91.9669   13.3638 O.3     1  UNL1       -0.3755
     20 C          63.9226   90.4748   13.5149 C.3     1  UNL1        0.1932
     21 H          63.5974   92.2107   12.4943 H       1  UNL1        0.2110
     22 C          62.9118   90.3827   12.4104 C.ar    1  UNL1        0.0368
     23 C          61.5372   89.8534   12.6940 C.ar    1  UNL1        0.0028
     24 C          60.5264   89.7612   11.5896 C.ar    1  UNL1        0.0295
     25 C          60.8902   90.1983   10.2016 C.ar    1  UNL1        0.1424
     26 F          59.8794   90.1061    9.0972 F       1  UNL1       -0.2041
     27 C          62.2648   90.7276    9.9180 C.ar    1  UNL1        0.0590
     28 C          63.2756   90.8197   11.0224 C.ar    1  UNL1        0.1408
     29 F          64.6501   91.3490   10.7388 F       1  UNL1       -0.2043
     30 C          64.9334   90.5671   14.6193 C.3     1  UNL1        0.1679
     31 N          66.0106   91.6095   14.5650 N.ar    1  UNL1       -0.2078
     32 C          66.4297   92.5039   15.6939 C.ar    1  UNL1        0.2216
     33 N          67.5360   93.3877   15.1989 N.ar    1  UNL1       -0.1048
     34 N          67.8007   93.0394   13.7641 N.ar    1  UNL1       -0.0226
     35 N          66.8580   91.9404   13.3724 N.ar    1  UNL1       -0.0428
@<TRIPOS>BOND
     1    19    20    1
     2    20    30    1
     3    30    31    1
     4    31    32   ar
     5    32    33   ar
     6    33    34   ar
     7    34    35   ar
     8    20    22    1
     9    22    23   ar
    10    23    24   ar
    11    24    25   ar
    12    25    26    1
    13    25    27   ar
    14    27    28   ar
    15    28    29    1
    16    20     1    1
    17     1     2    1
    18     1     3    1
    19     1     4    1
    20     4     5   ar
    21     5     6   ar
    22     6     7   ar
    23     7    10    1
    24    10    11    2
    25    11    12    1
    26    12    13    1
    27    13    14    1
    28    14    15    1
    29    15    16    1
    30    15    17    1
    31    15    18    1
    32     7     8   ar
    33     8     9   ar
    34    35    31   ar
    35    28    22   ar
    36     9     4   ar
    37    19    21    1
@<TRIPOS>MOLECULE
*****
 35 37 0 0 0
SMALL
GASTEIGER

@<TRIPOS>ATOM
      1 C          63.1950   85.7187   12.6922 C.3     1  UNL1        0.3254
      2 F          63.2709   86.5188   11.4256 F       1  UNL1       -0.1949
      3 F          63.2088   85.2378   14.1130 F       1  UNL1       -0.1949
      4 C          63.5638   87.0971   13.1551 C.ar    1  UNL1        0.1218
      5 C          64.3058   87.2813   14.4457 C.ar    1  UNL1        0.0202
      6 C          64.6746   88.6597   14.9086 C.ar    1  UNL1        0.0029
      7 C          64.3014   89.8537   14.0809 C.ar    1  UNL1        0.0189
      8 C          63.5594   89.6694   12.7903 C.ar    1  UNL1        0.0986
      9 N          63.1907   88.2911   12.3274 N.ar    1  UNL1       -0.2427
     10 C          64.6702   91.2320   14.5437 C.2     1  UNL1       -0.0005
     11 C          66.0391   91.7766   14.2619 C.2     1  UNL1        0.0057
     12 C          66.4079   93.1549   14.7248 C.3     1  UNL1        0.1687
     13 O          66.4172   94.2957   13.7508 O.3     1  UNL1       -0.3408
     14 C          66.1804   94.0384   12.2921 C.3     1  UNL1        0.2461
     15 C          66.4843   95.1060   11.2832 C.3     1  UNL1        0.4248
     16 F          66.7883   96.1737   10.2744 F       1  UNL1       -0.1674
     17 F          66.9212   94.0567   10.3044 F       1  UNL1       -0.1674
     18 F          66.0475   96.1553   12.2621 F       1  UNL1       -0.1674
     19 O          62.4574   82.9622   11.7664 O.3     1  UNL1       -0.3755
     20 C          62.8262   84.3404   12.2293 C.3     1  UNL1        0.1932
     21 H          61.8466   83.0259   11.0156 H       1  UNL1        0.2110
     22 C          62.3848   84.9016   10.9101 C.ar    1  UNL1        0.0368
     23 C          61.1628   85.7682   10.8348 C.ar    1  UNL1        0.0028
     24 C          60.7214   86.3293    9.5156 C.ar    1  UNL1        0.0295
     25 C          61.5020   86.0239    8.2718 C.ar    1  UNL1        0.1424
     26 F          61.0606   86.5850    6.9525 F       1  UNL1       -0.2041
     27 C          62.7240   85.1573    8.3470 C.ar    1  UNL1        0.0590
     28 C          63.1655   84.5962    9.6662 C.ar    1  UNL1        0.1408
     29 F          64.3875   83.7296    9.7415 F       1  UNL1       -0.2043
     30 C          63.2676   83.7793   13.5485 C.3     1  UNL1        0.1679
     31 N          63.0240   82.3341   13.8680 N.ar    1  UNL1       -0.2078
     32 C          61.7155   81.7321   14.2868 C.ar    1  UNL1        0.2216
     33 N          61.9289   80.2631   14.5025 N.ar    1  UNL1       -0.1048
     34 N          63.3693   79.9572   14.2170 N.ar    1  UNL1       -0.0226
     35 N          64.0461   81.2371   13.8249 N.ar    1  UNL1       -0.0428
@<TRIPOS>BOND
     1    19    20    1
     2    20    30    1
     3    30    31    1
     4    31    32   ar
     5    32    33   ar
     6    33    34   ar
     7    34    35   ar
     8    20    22    1
     9    22    23   ar
    10    23    24   ar
    11    24    25   ar
    12    25    26    1
    13    25    27   ar
    14    27    28   ar
    15    28    29    1
    16    20     1    1
    17     1     2    1
    18     1     3    1
    19     1     4    1
    20     4     5   ar
    21     5     6   ar
    22     6     7   ar
    23     7    10    1
    24    10    11    2
    25    11    12    1
    26    12    13    1
    27    13    14    1
    28    14    15    1
    29    15    16    1
    30    15    17    1
    31    15    18    1
    32     7     8   ar
    33     8     9   ar
    34    35    31   ar
    35    28    22   ar
    36     9     4   ar
    37    19    21    1
@<TRIPOS>MOLECULE
*****
 35 37 0 0 0
SMALL
GASTEIGER

@<TRIPOS>ATOM
      1 C          61.5167   87.8206   10.3628 C.3     1  UNL1        0.3254
      2 F          60.7254   88.1385   11.5969 F       1  UNL1       -0.1949
      3 F          62.5436   87.7428    9.2722 F       1  UNL1       -0.1949
      4 C          62.3643   88.8225   11.0894 C.ar    1  UNL1        0.1218
      5 C          62.6773   90.1434   10.4512 C.ar    1  UNL1        0.0202
      6 C          63.5249   91.1453   11.1778 C.ar    1  UNL1        0.0029
      7 C          64.0593   90.8263   12.5426 C.ar    1  UNL1        0.0189
      8 C          63.7461   89.5054   13.1808 C.ar    1  UNL1        0.0986
      9 N          62.8987   88.5036   12.4542 N.ar    1  UNL1       -0.2427
     10 C          64.9067   91.8282   13.2693 C.2     1  UNL1       -0.0005
     11 C          65.7809   92.7716   12.4973 C.2     1  UNL1        0.0057
     12 C          66.6283   93.7734   13.2239 C.3     1  UNL1        0.1687
     13 O          66.3632   94.0720   14.6698 O.3     1  UNL1       -0.3408
     14 C          66.7527   93.0789   15.7243 C.3     1  UNL1        0.2461
     15 C          68.1819   92.6414   15.8513 C.3     1  UNL1        0.4248
     16 F          69.6110   92.2039   15.9782 F       1  UNL1       -0.1674
     17 F          67.7889   91.2460   15.4660 F       1  UNL1       -0.1674
     18 F          68.5748   94.0368   16.2365 F       1  UNL1       -0.1674
     19 O          59.8217   85.8168    8.9097 O.3     1  UNL1       -0.3755
     20 C          60.6692   86.8187    9.6363 C.3     1  UNL1        0.1932
     21 H          60.3764   85.0782    8.6137 H       1  UNL1        0.2110
     22 C          61.7256   85.7742    9.8443 C.ar    1  UNL1        0.0368
     23 C          62.0306   85.2811   11.2277 C.ar    1  UNL1        0.0028
     24 C          63.0869   84.2367   11.4357 C.ar    1  UNL1        0.0295
     25 C          63.8382   83.6853   10.2604 C.ar    1  UNL1        0.1424
     26 F          64.8945   82.6408   10.4684 F       1  UNL1       -0.2041
     27 C          63.5331   84.1784    8.8770 C.ar    1  UNL1        0.0590
     28 C          62.4768   85.2228    8.6689 C.ar    1  UNL1        0.1408
     29 F          62.1718   85.7159    7.2855 F       1  UNL1       -0.2043
     30 C          59.6129   87.8631    9.4282 C.3     1  UNL1        0.1679
     31 N          59.5529   88.6222    8.1359 N.ar    1  UNL1       -0.2078
     32 C          60.1303   89.9838    7.8855 C.ar    1  UNL1        0.2216
     33 N          59.8393   90.3562    6.4619 N.ar    1  UNL1       -0.1048
     34 N          59.0820   89.2246    5.8324 N.ar    1  UNL1       -0.0226
     35 N          58.9051   88.1530    6.8670 N.ar    1  UNL1       -0.0428
@<TRIPOS>BOND
     1    19    20    1
     2    20    30    1
     3    30    31    1
     4    31    32   ar
     5    32    33   ar
     6    33    34   ar
     7    34    35   ar
     8    20    22    1
     9    22    23   ar
    10    23    24   ar
    11    24    25   ar
    12    25    26    1
    13    25    27   ar
    14    27    28   ar
    15    28    29    1
    16    20     1    1
    17     1     2    1
    18     1     3    1
    19     1     4    1
    20     4     5   ar
    21     5     6   ar
    22     6     7   ar
    23     7    10    1
    24    10    11    2
    25    11    12    1
    26    12    13    1
    27    13    14    1
    28    14    15    1
    29    15    16    1
    30    15    17    1
    31    15    18    1
    32     7     8   ar
    33     8     9   ar
    34    35    31   ar
    35    28    22   ar
    36     9     4   ar
    37    19    21    1
@<TRIPOS>MOLECULE
*****
 35 37 0 0 0
SMALL
GASTEIGER

@<TRIPOS>ATOM
      1 C          62.1417   87.7307   10.6750 C.3     1  UNL1        0.3254
      2 F          61.8216   87.0902   11.9932 F       1  UNL1       -0.1949
      3 F          62.6615   88.5956    9.5652 F       1  UNL1       -0.1949
      4 C          62.9037   88.5523   11.6723 C.ar    1  UNL1        0.1218
      5 C          63.4583   87.9075   12.9078 C.ar    1  UNL1        0.0202
      6 C          64.2203   88.7291   13.9051 C.ar    1  UNL1        0.0029
      7 C          64.4276   90.1954   13.6667 C.ar    1  UNL1        0.0189
      8 C          63.8729   90.8402   12.4311 C.ar    1  UNL1        0.0986
      9 N          63.1110   90.0186   11.4339 N.ar    1  UNL1       -0.2427
     10 C          65.1895   91.0170   14.6639 C.2     1  UNL1       -0.0005
     11 C          64.4729   91.6445   15.8227 C.2     1  UNL1        0.0057
     12 C          65.2349   92.4661   16.8198 C.3     1  UNL1        0.1687
     13 O          66.5107   93.1433   16.4152 O.3     1  UNL1       -0.3408
     14 C          67.8083   92.3929   16.4704 C.3     1  UNL1        0.2461
     15 C          68.8104   92.5453   15.3647 C.3     1  UNL1        0.4248
     16 F          69.8125   92.6977   14.2590 F       1  UNL1       -0.1674
     17 F          69.3993   93.7354   16.0624 F       1  UNL1       -0.1674
     18 F          68.2215   91.3552   14.6669 F       1  UNL1       -0.1674
     19 O          60.6177   86.0876    8.6807 O.3     1  UNL1       -0.3755
     20 C          61.3797   86.9092    9.6778 C.3     1  UNL1        0.1932
     21 H          61.1020   85.2667    8.5006 H       1  UNL1        0.2110
     22 C          62.1440   85.6890   10.0990 C.ar    1  UNL1        0.0368
     23 C          61.8748   85.0590   11.4334 C.ar    1  UNL1        0.0028
     24 C          62.6390   83.8389   11.8545 C.ar    1  UNL1        0.0295
     25 C          63.6724   83.2490   10.9413 C.ar    1  UNL1        0.1424
     26 F          64.4367   82.0289   11.3624 F       1  UNL1       -0.2041
     27 C          63.9416   83.8790    9.6069 C.ar    1  UNL1        0.0590
     28 C          63.1774   85.0991    9.1858 C.ar    1  UNL1        0.1408
     29 F          63.4465   85.7291    7.8514 F       1  UNL1       -0.2043
     30 C          60.6154   88.1292    9.2567 C.3     1  UNL1        0.1679
     31 N          59.9593   88.9968   10.2895 N.ar    1  UNL1       -0.2078
     32 C          59.2804   88.5200   11.5392 C.ar    1  UNL1        0.2216
     33 N          58.7684   89.7221   12.2761 N.ar    1  UNL1       -0.1048
     34 N          59.1308   90.9418   11.4817 N.ar    1  UNL1       -0.0226
     35 N          59.8668   90.4935   10.2540 N.ar    1  UNL1       -0.0428
@<TRIPOS>BOND
     1    19    20    1
     2    20    30    1
     3    30    31    1
     4    31    32   ar
     5    32    33   ar
     6    33    34   ar
     7    34    35   ar
     8    20    22    1
     9    22    23   ar
    10    23    24   ar
    11    24    25   ar
    12    25    26    1
    13    25    27   ar
    14    27    28   ar
    15    28    29    1
    16    20     1    1
    17     1     2    1
    18     1     3    1
    19     1     4    1
    20     4     5   ar
    21     5     6   ar
    22     6     7   ar
    23     7    10    1
    24    10    11    2
    25    11    12    1
    26    12    13    1
    27    13    14    1
    28    14    15    1
    29    15    16    1
    30    15    17    1
    31    15    18    1
    32     7     8   ar
    33     8     9   ar
    34    35    31   ar
    35    28    22   ar
    36     9     4   ar
    37    19    21    1
@<TRIPOS>MOLECULE
*****
 35 37 0 0 0
SMALL
GASTEIGER

@<TRIPOS>ATOM
      1 C          63.0537   86.5881   12.3559 C.3     1  UNL1        0.3254
      2 F          62.8535   87.3799   11.0977 F       1  UNL1       -0.1949
      3 F          63.3717   86.1171   13.7441 F       1  UNL1       -0.1949
      4 C          63.5014   87.9720   12.7228 C.ar    1  UNL1        0.1218
      5 C          64.2520   88.2033   14.0007 C.ar    1  UNL1        0.0202
      6 C          64.6997   89.5872   14.3676 C.ar    1  UNL1        0.0029
      7 C          64.3968   90.7397   13.4565 C.ar    1  UNL1        0.0189
      8 C          63.6461   90.5083   12.1786 C.ar    1  UNL1        0.0986
      9 N          63.1985   89.1244   11.8117 N.ar    1  UNL1       -0.2427
     10 C          64.8444   92.1235   13.8234 C.2     1  UNL1       -0.0005
     11 C          65.9954   92.7562   13.0988 C.2     1  UNL1        0.0057
     12 C          66.4430   94.1400   13.4656 C.3     1  UNL1        0.1687
     13 O          67.2347   94.3644   14.7198 O.3     1  UNL1       -0.3408
     14 C          67.3150   93.2858   15.7591 C.3     1  UNL1        0.2461
     15 C          68.6091   92.5641   15.9925 C.3     1  UNL1        0.4248
     16 F          69.9032   91.8424   16.2260 F       1  UNL1       -0.1674
     17 F          67.9352   91.2582   15.6918 F       1  UNL1       -0.1674
     18 F          69.2831   93.8700   16.2933 F       1  UNL1       -0.1674
     19 O          62.1584   83.8205   11.6221 O.3     1  UNL1       -0.3755
     20 C          62.6061   85.2043   11.9890 C.3     1  UNL1        0.1932
     21 H          61.4068   83.8751   11.0113 H       1  UNL1        0.2110
     22 C          61.9014   85.7519   10.7833 C.ar    1  UNL1        0.0368
     23 C          60.7075   86.6440   10.9532 C.ar    1  UNL1        0.0028
     24 C          60.0028   87.1916    9.7476 C.ar    1  UNL1        0.0295
     25 C          60.4920   86.8472    8.3721 C.ar    1  UNL1        0.1424
     26 F          59.7873   87.3948    7.1664 F       1  UNL1       -0.2041
     27 C          61.6859   85.9551    8.2022 C.ar    1  UNL1        0.0590
     28 C          62.3906   85.4075    9.4078 C.ar    1  UNL1        0.1408
     29 F          63.5845   84.5154    9.2379 F       1  UNL1       -0.2043
     30 C          63.3107   84.6567   13.1946 C.3     1  UNL1        0.1679
     31 N          63.2333   83.1917   13.5075 N.ar    1  UNL1       -0.2078
     32 C          62.3678   82.5586   14.5563 C.ar    1  UNL1        0.2216
     33 N          62.6075   81.0783   14.5236 N.ar    1  UNL1       -0.1048
     34 N          63.6211   80.7964   13.4545 N.ar    1  UNL1       -0.0226
     35 N          64.0079   82.1026   12.8265 N.ar    1  UNL1       -0.0428
@<TRIPOS>BOND
     1    19    20    1
     2    20    30    1
     3    30    31    1
     4    31    32   ar
     5    32    33   ar
     6    33    34   ar
     7    34    35   ar
     8    20    22    1
     9    22    23   ar
    10    23    24   ar
    11    24    25   ar
    12    25    26    1
    13    25    27   ar
    14    27    28   ar
    15    28    29    1
    16    20     1    1
    17     1     2    1
    18     1     3    1
    19     1     4    1
    20     4     5   ar
    21     5     6   ar
    22     6     7   ar
    23     7    10    1
    24    10    11    2
    25    11    12    1
    26    12    13    1
    27    13    14    1
    28    14    15    1
    29    15    16    1
    30    15    17    1
    31    15    18    1
    32     7     8   ar
    33     8     9   ar
    34    35    31   ar
    35    28    22   ar
    36     9     4   ar
    37    19    21    1
