@<TRIPOS>MOLECULE
*****
 26 27 0 0 0
SMALL
GASTEIGER

@<TRIPOS>ATOM
      1 C          64.3576   89.6778   14.3206 C.ar    1  UNL1        0.0010
      2 C          63.5234   90.0667   13.1362 C.ar    1  UNL1        0.0032
      3 C          63.9042   91.2590   12.3095 C.ar    1  UNL1        0.0376
      4 C          65.1194   92.0624   12.6673 C.ar    1  UNL1        0.1481
      5 C          65.9536   91.6736   13.8517 C.ar    1  UNL1        0.1023
      6 C          65.5727   90.4812   14.6783 C.ar    1  UNL1        0.0133
      7 C          64.2896   84.5309   15.0310 C.3     1  UNL1        0.0521
      8 C          63.9427   85.9120   15.5024 C.ar    1  UNL1        0.0594
      9 C          64.3236   87.1043   14.6758 C.ar    1  UNL1        0.0147
     10 C          63.9767   88.4854   15.1472 C.ar    1  UNL1        0.0027
     11 C          63.2490   88.6742   16.4452 C.ar    1  UNL1        0.0207
     12 C          62.8682   87.4819   17.2717 C.ar    1  UNL1        0.0984
     13 N          63.2150   86.1008   16.8003 N.ar    1  UNL1       -0.2481
     14 C          67.1687   92.4770   14.2095 C.1     1  UNL1        0.1035
     15 N          68.3838   93.2804   14.5672 N.1     1  UNL1       -0.1907
     16 O          65.5002   93.2547   11.8407 O.3     1  UNL1       -0.4734
     17 C          65.9706   93.0690   10.4285 C.3     1  UNL1        0.2193
     18 C          67.3521   93.5011   10.0351 C.3     1  UNL1        0.0798
     19 C          67.6807   92.0917    9.6409 C.3     1  UNL1        0.0193
     20 N          68.7336   93.9333    9.6418 N.3     1  UNL1       -0.3203
     21 H          69.2574   93.1276    9.2998 H       1  UNL1        0.1189
     22 H          69.2097   94.3293   10.4523 H       1  UNL1        0.1189
     23 C          67.0234   94.9105   10.4294 C.3     1  UNL1        0.0179
     24 C          66.2649   95.7960    9.4855 C.3     1  UNL1        0.0014
     25 C          65.0560   96.5429    9.9657 C.3     1  UNL1        0.0000
     26 C          66.7155   95.9344    8.0615 C.3     1  UNL1        0.0000
@<TRIPOS>BOND
     1     7     8    1
     2     8     9   ar
     3     9    10   ar
     4    10     1    1
     5     1     2   ar
     6     2     3   ar
     7     3     4   ar
     8     4    16    1
     9    16    17    1
    10    17    18    1
    11    18    19    1
    12    18    20    1
    13    18    23    1
    14    23    24    1
    15    24    25    1
    16    24    26    1
    17     4     5   ar
    18     5    14    1
    19    14    15    3
    20     5     6   ar
    21    10    11   ar
    22    11    12   ar
    23    12    13   ar
    24    13     8   ar
    25     6     1   ar
    26    20    21    1
    27    20    22    1
@<TRIPOS>MOLECULE
*****
 26 27 0 0 0
SMALL
GASTEIGER

@<TRIPOS>ATOM
      1 C          64.7190   90.3527   14.4520 C.ar    1  UNL1        0.0010
      2 C          64.1640   90.7734   13.1235 C.ar    1  UNL1        0.0032
      3 C          64.6721   92.0182   12.4586 C.ar    1  UNL1        0.0376
      4 C          65.7353   92.8424   13.1221 C.ar    1  UNL1        0.1481
      5 C          66.2904   92.4217   14.4506 C.ar    1  UNL1        0.1023
      6 C          65.7822   91.1768   15.1156 C.ar    1  UNL1        0.0133
      7 C          64.3710   85.1715   14.6374 C.3     1  UNL1        0.0521
      8 C          64.0369   86.5172   15.2096 C.ar    1  UNL1        0.0594
      9 C          64.5450   87.7621   14.5447 C.ar    1  UNL1        0.0147
     10 C          64.2108   89.1078   15.1169 C.ar    1  UNL1        0.0027
     11 C          63.3686   89.2087   16.3540 C.ar    1  UNL1        0.0207
     12 C          62.8604   87.9638   17.0188 C.ar    1  UNL1        0.0984
     13 N          63.1946   86.6181   16.4466 N.ar    1  UNL1       -0.2481
     14 C          67.3536   93.2459   15.1142 C.1     1  UNL1        0.1035
     15 N          68.4168   94.0700   15.7778 N.1     1  UNL1       -0.1907
     16 O          66.2435   94.0872   12.4572 O.3     1  UNL1       -0.4734
     17 C          65.8315   94.4080   11.0510 C.3     1  UNL1        0.2193
     18 C          66.8679   94.7774   10.0316 C.3     1  UNL1        0.0798
     19 C          66.8753   96.1852   10.5493 C.3     1  UNL1        0.0193
     20 N          67.9044   95.1469    9.0121 N.3     1  UNL1       -0.3203
     21 H          68.1441   96.1332    9.1130 H       1  UNL1        0.1189
     22 H          67.5350   94.9808    8.0760 H       1  UNL1        0.1189
     23 C          66.8605   93.3697    9.5139 C.3     1  UNL1        0.0179
     24 C          68.0658   92.4960    9.6992 C.3     1  UNL1        0.0014
     25 C          68.4188   91.9849   11.0645 C.3     1  UNL1        0.0000
     26 C          68.9180   92.1337    8.5192 C.3     1  UNL1        0.0000
@<TRIPOS>BOND
     1     7     8    1
     2     8     9   ar
     3     9    10   ar
     4    10     1    1
     5     1     2   ar
     6     2     3   ar
     7     3     4   ar
     8     4    16    1
     9    16    17    1
    10    17    18    1
    11    18    19    1
    12    18    20    1
    13    18    23    1
    14    23    24    1
    15    24    25    1
    16    24    26    1
    17     4     5   ar
    18     5    14    1
    19    14    15    3
    20     5     6   ar
    21    10    11   ar
    22    11    12   ar
    23    12    13   ar
    24    13     8   ar
    25     6     1   ar
    26    20    21    1
    27    20    22    1
@<TRIPOS>MOLECULE
*****
 26 27 0 0 0
SMALL
GASTEIGER

@<TRIPOS>ATOM
      1 C          62.3587   89.0694   10.4515 C.ar    1  UNL1        0.0010
      2 C          62.7916   90.3686    9.8393 C.ar    1  UNL1        0.0032
      3 C          63.5115   91.3872   10.6724 C.ar    1  UNL1        0.0376
      4 C          63.7986   91.1067   12.1178 C.ar    1  UNL1        0.1481
      5 C          63.3657   89.8076   12.7300 C.ar    1  UNL1        0.1023
      6 C          62.6457   88.7889   11.8968 C.ar    1  UNL1        0.0133
      7 C          62.4477   84.7933    7.5008 C.3     1  UNL1        0.0521
      8 C          61.6832   85.9128    8.1430 C.ar    1  UNL1        0.0594
      9 C          62.4031   86.9314    8.9761 C.ar    1  UNL1        0.0147
     10 C          61.6387   88.0508    9.6184 C.ar    1  UNL1        0.0027
     11 C          60.1543   88.1516    9.4275 C.ar    1  UNL1        0.0207
     12 C          59.4344   87.1330    8.5944 C.ar    1  UNL1        0.0984
     13 N          60.1989   86.0136    7.9522 N.ar    1  UNL1       -0.2481
     14 C          63.6527   89.5270   14.1752 C.1     1  UNL1        0.1035
     15 N          63.9397   89.2465   15.6205 N.1     1  UNL1       -0.1907
     16 O          64.5185   92.1253   12.9508 O.3     1  UNL1       -0.4734
     17 C          65.5905   92.9752   12.3356 C.3     1  UNL1        0.2193
     18 C          66.9931   92.4540   12.2307 C.3     1  UNL1        0.0798
     19 C          67.1624   92.6113   13.7128 C.3     1  UNL1        0.0193
     20 N          68.3957   91.9326   12.1259 N.3     1  UNL1       -0.3203
     21 H          68.8222   91.9154   13.0523 H       1  UNL1        0.1189
     22 H          68.9393   92.5400   11.5126 H       1  UNL1        0.1189
     23 C          66.8238   92.2966   10.7487 C.3     1  UNL1        0.0179
     24 C          67.6533   93.1188    9.8075 C.3     1  UNL1        0.0014
     25 C          68.6660   92.4534    8.9233 C.3     1  UNL1        0.0000
     26 C          67.4702   94.6065    9.7505 C.3     1  UNL1        0.0000
@<TRIPOS>BOND
     1     7     8    1
     2     8     9   ar
     3     9    10   ar
     4    10     1    1
     5     1     2   ar
     6     2     3   ar
     7     3     4   ar
     8     4    16    1
     9    16    17    1
    10    17    18    1
    11    18    19    1
    12    18    20    1
    13    18    23    1
    14    23    24    1
    15    24    25    1
    16    24    26    1
    17     4     5   ar
    18     5    14    1
    19    14    15    3
    20     5     6   ar
    21    10    11   ar
    22    11    12   ar
    23    12    13   ar
    24    13     8   ar
    25     6     1   ar
    26    20    21    1
    27    20    22    1
@<TRIPOS>MOLECULE
*****
 26 27 0 0 0
SMALL
GASTEIGER

@<TRIPOS>ATOM
      1 C          62.4209   89.1360   10.6113 C.ar    1  UNL1        0.0010
      2 C          62.9915   90.4173   10.0796 C.ar    1  UNL1        0.0032
      3 C          63.7086   91.3585   11.0014 C.ar    1  UNL1        0.0376
      4 C          63.8552   91.0184   12.4551 C.ar    1  UNL1        0.1481
      5 C          63.2847   89.7371   12.9868 C.ar    1  UNL1        0.1023
      6 C          62.5675   88.7959   12.0649 C.ar    1  UNL1        0.0133
      7 C          62.4113   84.8522    7.6704 C.3     1  UNL1        0.0521
      8 C          61.6990   86.0529    8.2190 C.ar    1  UNL1        0.0594
      9 C          62.4161   86.9941    9.1408 C.ar    1  UNL1        0.0147
     10 C          61.7038   88.1948    9.6894 C.ar    1  UNL1        0.0027
     11 C          60.2743   88.4542    9.3162 C.ar    1  UNL1        0.0207
     12 C          59.5572   87.5130    8.3943 C.ar    1  UNL1        0.0984
     13 N          60.2696   86.3124    7.8457 N.ar    1  UNL1       -0.2481
     14 C          63.4312   89.3970   14.4403 C.1     1  UNL1        0.1035
     15 N          63.5778   89.0569   15.8938 N.1     1  UNL1       -0.1907
     16 O          64.5724   91.9596   13.3769 O.3     1  UNL1       -0.4734
     17 C          65.7133   92.7876   12.8643 C.3     1  UNL1        0.2193
     18 C          67.0961   92.2087   12.8124 C.3     1  UNL1        0.0798
     19 C          67.2669   92.7415   11.4207 C.3     1  UNL1        0.0193
     20 N          68.4789   91.6297   12.7603 N.3     1  UNL1       -0.3203
     21 H          68.9019   91.8402   11.8563 H       1  UNL1        0.1189
     22 H          68.4292   90.6186   12.8853 H       1  UNL1        0.1189
     23 C          66.9253   91.6758   14.2040 C.3     1  UNL1        0.0179
     24 C          67.0602   92.5956   15.3812 C.3     1  UNL1        0.0014
     25 C          65.9805   92.6461   16.4212 C.3     1  UNL1        0.0000
     26 C          68.2749   93.4650   15.5183 C.3     1  UNL1        0.0000
@<TRIPOS>BOND
     1     7     8    1
     2     8     9   ar
     3     9    10   ar
     4    10     1    1
     5     1     2   ar
     6     2     3   ar
     7     3     4   ar
     8     4    16    1
     9    16    17    1
    10    17    18    1
    11    18    19    1
    12    18    20    1
    13    18    23    1
    14    23    24    1
    15    24    25    1
    16    24    26    1
    17     4     5   ar
    18     5    14    1
    19    14    15    3
    20     5     6   ar
    21    10    11   ar
    22    11    12   ar
    23    12    13   ar
    24    13     8   ar
    25     6     1   ar
    26    20    21    1
    27    20    22    1
@<TRIPOS>MOLECULE
*****
 26 27 0 0 0
SMALL
GASTEIGER

@<TRIPOS>ATOM
      1 C          62.3521   89.3481   10.8335 C.ar    1  UNL1        0.0010
      2 C          63.0629   90.5855   10.3713 C.ar    1  UNL1        0.0032
      3 C          63.8270   91.4227   11.3537 C.ar    1  UNL1        0.0376
      4 C          63.8804   91.0225   12.7984 C.ar    1  UNL1        0.1481
      5 C          63.1696   89.7851   13.2606 C.ar    1  UNL1        0.1023
      6 C          62.4054   88.9479   12.2781 C.ar    1  UNL1        0.0133
      7 C          58.9247   88.9762    6.9458 C.3     1  UNL1        0.0521
      8 C          59.8742   88.3250    7.9072 C.ar    1  UNL1        0.0594
      9 C          60.6384   89.1621    8.8896 C.ar    1  UNL1        0.0147
     10 C          61.5879   88.5109    9.8510 C.ar    1  UNL1        0.0027
     11 C          61.7733   87.0226    9.8299 C.ar    1  UNL1        0.0207
     12 C          61.0092   86.1855    8.8475 C.ar    1  UNL1        0.0984
     13 N          60.0596   86.8367    7.8861 N.ar    1  UNL1       -0.2481
     14 C          63.2230   89.3848   14.7052 C.1     1  UNL1        0.1035
     15 N          63.2763   88.9846   16.1498 N.1     1  UNL1       -0.1907
     16 O          64.6445   91.8596   13.7808 O.3     1  UNL1       -0.4734
     17 C          65.9606   91.3764   14.3141 C.3     1  UNL1        0.2193
     18 C          67.1121   92.3287   14.4449 C.3     1  UNL1        0.0798
     19 C          66.6768   92.6634   15.8407 C.3     1  UNL1        0.0193
     20 N          68.2637   93.2810   14.5757 N.3     1  UNL1       -0.3203
     21 H          68.2455   93.7115   15.5002 H       1  UNL1        0.1189
     22 H          68.1884   94.0056   13.8618 H       1  UNL1        0.1189
     23 C          67.5475   91.9939   13.0491 C.3     1  UNL1        0.0179
     24 C          67.0792   92.8316   11.8961 C.3     1  UNL1        0.0014
     25 C          67.3749   92.4036   10.4893 C.3     1  UNL1        0.0000
     26 C          66.3152   94.0972   12.1502 C.3     1  UNL1        0.0000
@<TRIPOS>BOND
     1     7     8    1
     2     8     9   ar
     3     9    10   ar
     4    10     1    1
     5     1     2   ar
     6     2     3   ar
     7     3     4   ar
     8     4    16    1
     9    16    17    1
    10    17    18    1
    11    18    19    1
    12    18    20    1
    13    18    23    1
    14    23    24    1
    15    24    25    1
    16    24    26    1
    17     4     5   ar
    18     5    14    1
    19    14    15    3
    20     5     6   ar
    21    10    11   ar
    22    11    12   ar
    23    12    13   ar
    24    13     8   ar
    25     6     1   ar
    26    20    21    1
    27    20    22    1
@<TRIPOS>MOLECULE
*****
 26 27 0 0 0
SMALL
GASTEIGER

@<TRIPOS>ATOM
      1 C          63.8573   87.2115   13.7436 C.ar    1  UNL1        0.0010
      2 C          64.5134   88.0022   14.8365 C.ar    1  UNL1        0.0032
      3 C          64.6293   89.4930   14.7177 C.ar    1  UNL1        0.0376
      4 C          64.0890   90.1931   13.5060 C.ar    1  UNL1        0.1481
      5 C          63.4329   89.4024   12.4132 C.ar    1  UNL1        0.1023
      6 C          63.3170   87.9116   12.5320 C.ar    1  UNL1        0.0133
      7 C          62.6633   82.6095   11.6471 C.3     1  UNL1        0.0521
      8 C          63.1444   83.4197   12.8141 C.ar    1  UNL1        0.0594
      9 C          63.2603   84.9105   12.6954 C.ar    1  UNL1        0.0147
     10 C          63.7414   85.7207   13.8624 C.ar    1  UNL1        0.0027
     11 C          64.1067   85.0402   15.1483 C.ar    1  UNL1        0.0207
     12 C          63.9909   83.5494   15.2670 C.ar    1  UNL1        0.0984
     13 N          63.5097   82.7392   14.1000 N.ar    1  UNL1       -0.2481
     14 C          62.8926   90.1025   11.2016 C.1     1  UNL1        0.1035
     15 N          62.3524   90.8025    9.9901 N.1     1  UNL1       -0.1907
     16 O          64.2049   91.6839   13.3873 O.3     1  UNL1       -0.4734
     17 C          65.4468   92.3797   13.8600 C.3     1  UNL1        0.2193
     18 C          66.7296   92.2244   13.0982 C.3     1  UNL1        0.0798
     19 C          67.4444   91.8819   14.3717 C.3     1  UNL1        0.0193
     20 N          68.0125   92.0692   12.3365 N.3     1  UNL1       -0.3203
     21 H          68.7615   91.8144   12.9803 H       1  UNL1        0.1189
     22 H          68.2439   92.9500   11.8771 H       1  UNL1        0.1189
     23 C          66.0148   92.5670   11.8248 C.3     1  UNL1        0.0179
     24 C          66.3768   93.8139   11.0736 C.3     1  UNL1        0.0014
     25 C          66.2458   95.1533   11.7361 C.3     1  UNL1        0.0000
     26 C          66.8697   93.7214    9.6599 C.3     1  UNL1        0.0000
@<TRIPOS>BOND
     1     7     8    1
     2     8     9   ar
     3     9    10   ar
     4    10     1    1
     5     1     2   ar
     6     2     3   ar
     7     3     4   ar
     8     4    16    1
     9    16    17    1
    10    17    18    1
    11    18    19    1
    12    18    20    1
    13    18    23    1
    14    23    24    1
    15    24    25    1
    16    24    26    1
    17     4     5   ar
    18     5    14    1
    19    14    15    3
    20     5     6   ar
    21    10    11   ar
    22    11    12   ar
    23    12    13   ar
    24    13     8   ar
    25     6     1   ar
    26    20    21    1
    27    20    22    1
@<TRIPOS>MOLECULE
*****
 26 27 0 0 0
SMALL
GASTEIGER

@<TRIPOS>ATOM
      1 C          63.8521   90.7306   11.7461 C.ar    1  UNL1        0.0010
      2 C          63.9352   89.6401   12.7728 C.ar    1  UNL1        0.0032
      3 C          63.0264   88.4505   12.6786 C.ar    1  UNL1        0.0376
      4 C          62.0345   88.3513   11.5577 C.ar    1  UNL1        0.1481
      5 C          61.9514   89.4417   10.5311 C.ar    1  UNL1        0.1023
      6 C          62.8602   90.6314   10.6253 C.ar    1  UNL1        0.0133
      7 C          67.0335   93.7538   14.5279 C.3     1  UNL1        0.0521
      8 C          66.3516   93.4318   13.2313 C.ar    1  UNL1        0.0594
      9 C          65.4428   92.2422   13.1370 C.ar    1  UNL1        0.0147
     10 C          64.7609   91.9202   11.8404 C.ar    1  UNL1        0.0027
     11 C          64.9879   92.7878   10.6380 C.ar    1  UNL1        0.0207
     12 C          65.8967   93.9774   10.7322 C.ar    1  UNL1        0.0984
     13 N          66.5785   94.2994   12.0289 N.ar    1  UNL1       -0.2481
     14 C          60.9595   89.3426    9.4102 C.1     1  UNL1        0.1035
     15 N          59.9676   89.2434    8.2894 N.1     1  UNL1       -0.1907
     16 O          61.1257   87.1617   11.4636 O.3     1  UNL1       -0.4734
     17 C          61.1567   86.2888   10.2441 C.3     1  UNL1        0.2193
     18 C          62.3372   85.3995    9.9882 C.3     1  UNL1        0.0798
     19 C          62.2060   84.8280   11.3688 C.3     1  UNL1        0.0193
     20 N          63.5177   84.5101    9.7323 N.3     1  UNL1       -0.3203
     21 H          63.7011   83.9421   10.5594 H       1  UNL1        0.1189
     22 H          64.3360   85.0825    9.5246 H       1  UNL1        0.1189
     23 C          62.4684   85.9710    8.6075 C.3     1  UNL1        0.0179
     24 C          61.6083   85.4491    7.4949 C.3     1  UNL1        0.0014
     25 C          60.1540   85.8118    7.4379 C.3     1  UNL1        0.0000
     26 C          62.2026   84.5645    6.4393 C.3     1  UNL1        0.0000
@<TRIPOS>BOND
     1     7     8    1
     2     8     9   ar
     3     9    10   ar
     4    10     1    1
     5     1     2   ar
     6     2     3   ar
     7     3     4   ar
     8     4    16    1
     9    16    17    1
    10    17    18    1
    11    18    19    1
    12    18    20    1
    13    18    23    1
    14    23    24    1
    15    24    25    1
    16    24    26    1
    17     4     5   ar
    18     5    14    1
    19    14    15    3
    20     5     6   ar
    21    10    11   ar
    22    11    12   ar
    23    12    13   ar
    24    13     8   ar
    25     6     1   ar
    26    20    21    1
    27    20    22    1
@<TRIPOS>MOLECULE
*****
 26 27 0 0 0
SMALL
GASTEIGER

@<TRIPOS>ATOM
      1 C          63.3694   85.9619   13.2535 C.ar    1  UNL1        0.0010
      2 C          64.1412   86.5163   14.4140 C.ar    1  UNL1        0.0032
      3 C          64.4114   87.9892   14.5001 C.ar    1  UNL1        0.0376
      4 C          63.9097   88.9078   13.4255 C.ar    1  UNL1        0.1481
      5 C          63.1379   88.3534   12.2650 C.ar    1  UNL1        0.1023
      6 C          62.8677   86.8804   12.1790 C.ar    1  UNL1        0.0133
      7 C          63.3755   81.5372   10.5290 C.3     1  UNL1        0.0521
      8 C          63.1023   82.2766   11.8052 C.ar    1  UNL1        0.0594
      9 C          63.3724   83.7495   11.8913 C.ar    1  UNL1        0.0147
     10 C          63.0992   84.4889   13.1675 C.ar    1  UNL1        0.0027
     11 C          62.5559   83.7553   14.3577 C.ar    1  UNL1        0.0207
     12 C          62.2858   82.2823   14.2716 C.ar    1  UNL1        0.0984
     13 N          62.5590   81.5430   12.9954 N.ar    1  UNL1       -0.2481
     14 C          62.6362   89.2719   11.1905 C.1     1  UNL1        0.1035
     15 N          62.1345   90.1904   10.1160 N.1     1  UNL1       -0.1907
     16 O          64.1799   90.3807   13.5116 O.3     1  UNL1       -0.4734
     17 C          65.4961   90.8724   14.0369 C.3     1  UNL1        0.2193
     18 C          66.2295   91.9655   13.3178 C.3     1  UNL1        0.0798
     19 C          65.0264   92.2049   12.4546 C.3     1  UNL1        0.0193
     20 N          66.9630   93.0586   12.5985 N.3     1  UNL1       -0.3203
     21 H          66.3579   93.4598   11.8821 H       1  UNL1        0.1189
     22 H          67.8004   92.6750   12.1604 H       1  UNL1        0.1189
     23 C          67.4327   91.7260   14.1809 C.3     1  UNL1        0.0179
     24 C          67.6765   92.5887   15.3836 C.3     1  UNL1        0.0014
     25 C          66.5796   92.8108   16.3822 C.3     1  UNL1        0.0000
     26 C          69.0175   93.2293   15.5877 C.3     1  UNL1        0.0000
@<TRIPOS>BOND
     1     7     8    1
     2     8     9   ar
     3     9    10   ar
     4    10     1    1
     5     1     2   ar
     6     2     3   ar
     7     3     4   ar
     8     4    16    1
     9    16    17    1
    10    17    18    1
    11    18    19    1
    12    18    20    1
    13    18    23    1
    14    23    24    1
    15    24    25    1
    16    24    26    1
    17     4     5   ar
    18     5    14    1
    19    14    15    3
    20     5     6   ar
    21    10    11   ar
    22    11    12   ar
    23    12    13   ar
    24    13     8   ar
    25     6     1   ar
    26    20    21    1
    27    20    22    1
@<TRIPOS>MOLECULE
*****
 26 27 0 0 0
SMALL
GASTEIGER

@<TRIPOS>ATOM
      1 C          62.0870   88.3482   10.9206 C.ar    1  UNL1        0.0010
      2 C          62.3392   89.8075   11.1589 C.ar    1  UNL1        0.0032
      3 C          63.1646   90.2441   12.3328 C.ar    1  UNL1        0.0376
      4 C          63.7378   89.2214   13.2685 C.ar    1  UNL1        0.1481
      5 C          63.4856   87.7620   13.0302 C.ar    1  UNL1        0.1023
      6 C          62.6602   87.3255   11.8562 C.ar    1  UNL1        0.0133
      7 C          59.0967   89.5224    6.8365 C.3     1  UNL1        0.0521
      8 C          59.7665   88.4988    7.7046 C.ar    1  UNL1        0.0594
      9 C          60.5919   88.9353    8.8785 C.ar    1  UNL1        0.0147
     10 C          61.2616   87.9116    9.7466 C.ar    1  UNL1        0.0027
     11 C          61.1060   86.4514    9.4407 C.ar    1  UNL1        0.0207
     12 C          60.2806   86.0149    8.2668 C.ar    1  UNL1        0.0984
     13 N          59.6109   87.0386    7.3987 N.ar    1  UNL1       -0.2481
     14 C          64.0588   86.7393   13.9658 C.1     1  UNL1        0.1035
     15 N          64.6320   85.7166   14.9015 N.1     1  UNL1       -0.1907
     16 O          64.5632   89.6580   14.4424 O.3     1  UNL1       -0.4734
     17 C          65.2183   91.0074   14.4383 C.3     1  UNL1        0.2193
     18 C          65.0596   91.9217   15.6167 C.3     1  UNL1        0.0798
     19 C          63.9831   91.0312   16.1627 C.3     1  UNL1        0.0193
     20 N          64.9009   92.8360   16.7953 N.3     1  UNL1       -0.3203
     21 H          64.1748   92.4723   17.4124 H       1  UNL1        0.1189
     22 H          64.6368   93.7663   16.4708 H       1  UNL1        0.1189
     23 C          66.1361   92.8122   15.0707 C.3     1  UNL1        0.0179
     24 C          67.5455   92.3088   14.9680 C.3     1  UNL1        0.0014
     25 C          68.3844   92.1703   16.2037 C.3     1  UNL1        0.0000
     26 C          68.1158   91.9440   13.6295 C.3     1  UNL1        0.0000
@<TRIPOS>BOND
     1     7     8    1
     2     8     9   ar
     3     9    10   ar
     4    10     1    1
     5     1     2   ar
     6     2     3   ar
     7     3     4   ar
     8     4    16    1
     9    16    17    1
    10    17    18    1
    11    18    19    1
    12    18    20    1
    13    18    23    1
    14    23    24    1
    15    24    25    1
    16    24    26    1
    17     4     5   ar
    18     5    14    1
    19    14    15    3
    20     5     6   ar
    21    10    11   ar
    22    11    12   ar
    23    12    13   ar
    24    13     8   ar
    25     6     1   ar
    26    20    21    1
    27    20    22    1
