@<TRIPOS>MOLECULE
*****
 26 28 0 0 0
SMALL
GASTEIGER

@<TRIPOS>ATOM
      1 C          62.8975   88.6651   12.1406 C.2     1  UNL1        0.2493
      2 O          63.3084   87.3247   12.6741 O.2     1  UNL1       -0.2699
      3 N          61.6564   88.7924   11.3079 N.am    1  UNL1       -0.2694
      4 N          66.8119   95.4018   11.1831 N.pl3   1  UNL1       -0.3375
      5 C          66.1499   94.1357   11.6401 C.ar    1  UNL1        0.1567
      6 N          66.1764   93.5800   13.0331 N.ar    1  UNL1       -0.2245
      7 C          65.3881   92.3039   13.0382 C.ar    1  UNL1        0.0892
      8 C          65.0717   91.3240   14.1289 C.ar    1  UNL1        0.0198
      9 C          64.2415   90.1110   13.8296 C.ar    1  UNL1        0.0061
     10 C          63.7277   89.8781   12.4398 C.ar    1  UNL1        0.0542
     11 C          64.0441   90.8580   11.3491 C.ar    1  UNL1        0.0126
     12 C          64.8743   92.0709   11.6483 C.ar    1  UNL1        0.0498
     13 S          65.3452   93.2030   10.7843 S.2     1  UNL1       -0.0520
     14 H          67.3212   95.9497   11.8232 H       1  UNL1        0.1442
     15 H          66.7372   95.6848   10.2431 H       1  UNL1        0.1442
     16 C          61.2454   90.1327   10.7744 C.3     1  UNL1        0.1257
     17 C          59.7923   90.4474   10.5755 C.3     1  UNL1        0.1586
     18 O          59.0546   91.2613   11.5969 O.3     1  UNL1       -0.3802
     19 H          59.0008   90.7648   12.4285 H       1  UNL1        0.2105
     20 C          60.8261   87.5794   11.0087 C.3     1  UNL1        0.1205
     21 C          61.0624   86.8011    9.7484 C.ar    1  UNL1       -0.0023
     22 C          62.3987   86.1675    9.4976 C.ar    1  UNL1       -0.0026
     23 C          62.6350   85.3892    8.2373 C.ar    1  UNL1       -0.0003
     24 C          61.5349   85.2444    7.2278 C.ar    1  UNL1       -0.0000
     25 C          60.1986   85.8779    7.4787 C.ar    1  UNL1       -0.0003
     26 C          59.9624   86.6563    8.7391 C.ar    1  UNL1       -0.0026
@<TRIPOS>BOND
     1     4     5    1
     2     5     6   ar
     3     6     7   ar
     4     7     8   ar
     5     8     9   ar
     6     9    10   ar
     7    10     1    1
     8     1     2    2
     9     1     3   am
    10     3    16    1
    11    16    17    1
    12    17    18    1
    13     3    20    1
    14    20    21    1
    15    21    22   ar
    16    22    23   ar
    17    23    24   ar
    18    24    25   ar
    19    25    26   ar
    20    10    11   ar
    21    11    12   ar
    22    12    13   ar
    23    13     5   ar
    24    12     7   ar
    25    26    21   ar
    26     4    14    1
    27     4    15    1
    28    18    19    1
@<TRIPOS>MOLECULE
*****
 26 28 0 0 0
SMALL
GASTEIGER

@<TRIPOS>ATOM
      1 C          62.9086   88.7252   12.1100 C.2     1  UNL1        0.2493
      2 O          63.3296   87.4053   12.6850 O.2     1  UNL1       -0.2699
      3 N          61.6715   88.8155   11.2666 N.am    1  UNL1       -0.2694
      4 N          67.4887   93.9404   15.7772 N.pl3   1  UNL1       -0.3375
      5 C          66.6229   93.1310   14.8578 C.ar    1  UNL1        0.1567
      6 N          66.2215   93.5105   13.4632 N.ar    1  UNL1       -0.2245
      7 C          65.3571   92.4140   12.9150 C.ar    1  UNL1        0.0892
      8 C          64.6737   92.2416   11.5909 C.ar    1  UNL1        0.0198
      9 C          63.8576   91.0121   11.3226 C.ar    1  UNL1        0.0061
     10 C          63.7248   89.9548   12.3784 C.ar    1  UNL1        0.0542
     11 C          64.4081   90.1272   13.7025 C.ar    1  UNL1        0.0126
     12 C          65.2243   91.3568   13.9708 C.ar    1  UNL1        0.0498
     13 S          66.0066   91.7999   15.1715 S.2     1  UNL1       -0.0520
     14 H          67.8482   94.8069   15.4788 H       1  UNL1        0.1442
     15 H          67.6973   93.6051   16.6790 H       1  UNL1        0.1442
     16 C          61.2505   90.1354   10.6915 C.3     1  UNL1        0.1257
     17 C          59.7933   90.4538   10.5329 C.3     1  UNL1        0.1586
     18 O          59.0733   91.2238   11.6001 O.3     1  UNL1       -0.3802
     19 H          59.0363   90.6940   12.4118 H       1  UNL1        0.2105
     20 C          60.8553   87.5859   10.9982 C.3     1  UNL1        0.1205
     21 C          61.0712   86.8029    9.7371 C.ar    1  UNL1       -0.0023
     22 C          59.9619   86.6730    8.7358 C.ar    1  UNL1       -0.0026
     23 C          60.1777   85.8900    7.4748 C.ar    1  UNL1       -0.0003
     24 C          61.5029   85.2369    7.2149 C.ar    1  UNL1       -0.0000
     25 C          62.6122   85.3669    8.2162 C.ar    1  UNL1       -0.0003
     26 C          62.3963   86.1499    9.4773 C.ar    1  UNL1       -0.0026
@<TRIPOS>BOND
     1     4     5    1
     2     5     6   ar
     3     6     7   ar
     4     7     8   ar
     5     8     9   ar
     6     9    10   ar
     7    10     1    1
     8     1     2    2
     9     1     3   am
    10     3    16    1
    11    16    17    1
    12    17    18    1
    13     3    20    1
    14    20    21    1
    15    21    22   ar
    16    22    23   ar
    17    23    24   ar
    18    24    25   ar
    19    25    26   ar
    20    10    11   ar
    21    11    12   ar
    22    12    13   ar
    23    13     5   ar
    24    12     7   ar
    25    26    21   ar
    26     4    14    1
    27     4    15    1
    28    18    19    1
@<TRIPOS>MOLECULE
*****
 26 28 0 0 0
SMALL
GASTEIGER

@<TRIPOS>ATOM
      1 C          64.5899   91.4893   13.7303 C.2     1  UNL1        0.2493
      2 O          63.6611   91.9848   12.6618 O.2     1  UNL1       -0.2699
      3 N          65.8617   92.2296   14.0209 N.am    1  UNL1       -0.2694
      4 N          63.8710   83.9287   15.7160 N.pl3   1  UNL1       -0.3375
      5 C          63.8806   85.4233   15.5898 C.ar    1  UNL1        0.1567
      6 N          63.3448   86.3967   16.5974 N.ar    1  UNL1       -0.2245
      7 C          63.5608   87.7820   16.0641 C.ar    1  UNL1        0.0892
      8 C          63.2345   89.1350   16.6234 C.ar    1  UNL1        0.0198
      9 C          63.5775   90.3707   15.8455 C.ar    1  UNL1        0.0061
     10 C          64.2469   90.2535   14.5083 C.ar    1  UNL1        0.0542
     11 C          64.5732   88.9005   13.9490 C.ar    1  UNL1        0.0126
     12 C          64.2302   87.6648   14.7269 C.ar    1  UNL1        0.0498
     13 S          64.4278   86.2070   14.4337 S.2     1  UNL1       -0.0520
     14 H          63.4874   83.5048   16.5175 H       1  UNL1        0.1442
     15 H          64.2483   83.3715   14.9973 H       1  UNL1        0.1442
     16 C          66.7905   91.7341   15.0895 C.3     1  UNL1        0.1257
     17 C          68.0750   92.4593   15.3621 C.3     1  UNL1        0.1586
     18 O          69.2373   92.3036   14.4268 O.3     1  UNL1       -0.3802
     19 H          69.5576   91.3886   14.4587 H       1  UNL1        0.2105
     20 C          66.2047   93.4654   13.2430 C.3     1  UNL1        0.1205
     21 C          66.7748   93.3473   11.8606 C.ar    1  UNL1       -0.0023
     22 C          67.5211   92.1093   11.4603 C.ar    1  UNL1       -0.0026
     23 C          68.0911   91.9912   10.0779 C.ar    1  UNL1       -0.0003
     24 C          67.9149   93.1112    9.0957 C.ar    1  UNL1       -0.0000
     25 C          67.1686   94.3493    9.4960 C.ar    1  UNL1       -0.0003
     26 C          66.5986   94.4673   10.8785 C.ar    1  UNL1       -0.0026
@<TRIPOS>BOND
     1     4     5    1
     2     5     6   ar
     3     6     7   ar
     4     7     8   ar
     5     8     9   ar
     6     9    10   ar
     7    10     1    1
     8     1     2    2
     9     1     3   am
    10     3    16    1
    11    16    17    1
    12    17    18    1
    13     3    20    1
    14    20    21    1
    15    21    22   ar
    16    22    23   ar
    17    23    24   ar
    18    24    25   ar
    19    25    26   ar
    20    10    11   ar
    21    11    12   ar
    22    12    13   ar
    23    13     5   ar
    24    12     7   ar
    25    26    21   ar
    26     4    14    1
    27     4    15    1
    28    18    19    1
@<TRIPOS>MOLECULE
*****
 26 28 0 0 0
SMALL
GASTEIGER

@<TRIPOS>ATOM
      1 C          61.9955   89.1535   11.0590 C.2     1  UNL1        0.2493
      2 O          60.9351   89.6641   10.1291 O.2     1  UNL1       -0.2699
      3 N          62.0631   87.6918   11.3891 N.am    1  UNL1       -0.2694
      4 N          66.4717   92.8597   16.3364 N.pl3   1  UNL1       -0.3375
      5 C          65.7402   92.3299   15.1388 C.ar    1  UNL1        0.1567
      6 N          65.8915   92.8148   13.7274 N.ar    1  UNL1       -0.2245
      7 C          64.9738   92.0066   12.8587 C.ar    1  UNL1        0.0892
      8 C          64.6996   92.0400   11.3844 C.ar    1  UNL1        0.0198
      9 C          63.7068   91.0889   10.7845 C.ar    1  UNL1        0.0061
     10 C          62.9883   90.1045   11.6590 C.ar    1  UNL1        0.0542
     11 C          63.2625   90.0712   13.1333 C.ar    1  UNL1        0.0126
     12 C          64.2552   91.0223   13.7331 C.ar    1  UNL1        0.0498
     13 S          64.7289   91.2221   15.1423 S.2     1  UNL1       -0.0520
     14 H          67.1202   93.5931   16.2323 H       1  UNL1        0.1442
     15 H          66.3033   92.4741   17.2264 H       1  UNL1        0.1442
     16 C          63.1234   87.1812   12.3190 C.3     1  UNL1        0.1257
     17 C          63.1470   85.7321   12.7062 C.3     1  UNL1        0.1586
     18 O          62.9593   85.3360   14.1407 O.3     1  UNL1       -0.3802
     19 H          63.7095   85.6564   14.6655 H       1  UNL1        0.2105
     20 C          61.0703   86.7407   10.7891 C.3     1  UNL1        0.1205
     21 C          61.3290   86.1389    9.4398 C.ar    1  UNL1       -0.0023
     22 C          60.2510   86.1447    8.3968 C.ar    1  UNL1       -0.0026
     23 C          60.5097   85.5429    7.0474 C.ar    1  UNL1       -0.0003
     24 C          61.8466   84.9352    6.7410 C.ar    1  UNL1       -0.0000
     25 C          62.9246   84.9294    7.7840 C.ar    1  UNL1       -0.0003
     26 C          62.6657   85.5313    9.1334 C.ar    1  UNL1       -0.0026
@<TRIPOS>BOND
     1     4     5    1
     2     5     6   ar
     3     6     7   ar
     4     7     8   ar
     5     8     9   ar
     6     9    10   ar
     7    10     1    1
     8     1     2    2
     9     1     3   am
    10     3    16    1
    11    16    17    1
    12    17    18    1
    13     3    20    1
    14    20    21    1
    15    21    22   ar
    16    22    23   ar
    17    23    24   ar
    18    24    25   ar
    19    25    26   ar
    20    10    11   ar
    21    11    12   ar
    22    12    13   ar
    23    13     5   ar
    24    12     7   ar
    25    26    21   ar
    26     4    14    1
    27     4    15    1
    28    18    19    1
@<TRIPOS>MOLECULE
*****
 26 28 0 0 0
SMALL
GASTEIGER

@<TRIPOS>ATOM
      1 C          62.8718   90.7902   10.8018 C.2     1  UNL1        0.2493
      2 O          63.3523   91.2126    9.4451 O.2     1  UNL1       -0.2699
      3 N          61.5065   90.1897   10.9604 N.am    1  UNL1       -0.2694
      4 N          68.1779   93.8282   15.7251 N.pl3   1  UNL1       -0.3375
      5 C          67.1392   93.0407   14.9829 C.ar    1  UNL1        0.1567
      6 N          66.5048   91.7624   15.4452 N.ar    1  UNL1       -0.2245
      7 C          65.5261   91.3248   14.3961 C.ar    1  UNL1        0.0892
      8 C          64.6119   90.1388   14.3086 C.ar    1  UNL1        0.0198
      9 C          63.7271   89.9607   13.1106 C.ar    1  UNL1        0.0061
     10 C          63.7566   90.9685   11.9999 C.ar    1  UNL1        0.0542
     11 C          64.6708   92.1544   12.0874 C.ar    1  UNL1        0.0126
     12 C          65.5556   92.3326   13.2854 C.ar    1  UNL1        0.0498
     13 S          66.5525   93.3930   13.6481 S.2     1  UNL1       -0.0520
     14 H          68.5020   93.5139   16.6000 H       1  UNL1        0.1442
     15 H          68.5355   94.6595   15.3374 H       1  UNL1        0.1442
     16 C          61.0259   89.7673   12.3171 C.3     1  UNL1        0.1257
     17 C          59.5554   89.6488   12.5886 C.3     1  UNL1        0.1586
     18 O          58.8913   88.3044   12.5484 O.3     1  UNL1       -0.3802
     19 H          58.9177   87.9577   11.6429 H       1  UNL1        0.2105
     20 C          60.6216   90.0115    9.7623 C.3     1  UNL1        0.1205
     21 C          60.5170   88.6696    9.1002 C.ar    1  UNL1       -0.0023
     22 C          61.5124   87.5947    9.4223 C.ar    1  UNL1       -0.0026
     23 C          61.4078   86.2528    8.7601 C.ar    1  UNL1       -0.0003
     24 C          60.3078   85.9859    7.7758 C.ar    1  UNL1       -0.0000
     25 C          59.3124   87.0608    7.4537 C.ar    1  UNL1       -0.0003
     26 C          59.4171   88.4027    8.1159 C.ar    1  UNL1       -0.0026
@<TRIPOS>BOND
     1     4     5    1
     2     5     6   ar
     3     6     7   ar
     4     7     8   ar
     5     8     9   ar
     6     9    10   ar
     7    10     1    1
     8     1     2    2
     9     1     3   am
    10     3    16    1
    11    16    17    1
    12    17    18    1
    13     3    20    1
    14    20    21    1
    15    21    22   ar
    16    22    23   ar
    17    23    24   ar
    18    24    25   ar
    19    25    26   ar
    20    10    11   ar
    21    11    12   ar
    22    12    13   ar
    23    13     5   ar
    24    12     7   ar
    25    26    21   ar
    26     4    14    1
    27     4    15    1
    28    18    19    1
@<TRIPOS>MOLECULE
*****
 26 28 0 0 0
SMALL
GASTEIGER

@<TRIPOS>ATOM
      1 C          62.0304   89.1218   10.9047 C.2     1  UNL1        0.2493
      2 O          60.9715   89.5475    9.9312 O.2     1  UNL1       -0.2699
      3 N          62.1130   87.6901   11.3444 N.am    1  UNL1       -0.2694
      4 N          67.0640   95.1373   11.2208 N.pl3   1  UNL1       -0.3375
      5 C          66.1591   93.9615   11.4414 C.ar    1  UNL1        0.1567
      6 N          65.9389   93.2505   12.7437 N.ar    1  UNL1       -0.2245
      7 C          64.9592   92.1399   12.5057 C.ar    1  UNL1        0.0892
      8 C          64.3682   91.1094   13.4215 C.ar    1  UNL1        0.0198
      9 C          63.3919   90.1034   12.8878 C.ar    1  UNL1        0.0061
     10 C          63.0067   90.1279   11.4383 C.ar    1  UNL1        0.0542
     11 C          63.5977   91.1584   10.5225 C.ar    1  UNL1        0.0126
     12 C          64.5740   92.1643   11.0562 C.ar    1  UNL1        0.0498
     13 S          65.3156   93.2902   10.3985 S.2     1  UNL1       -0.0520
     14 H          67.5799   95.5092   11.9722 H       1  UNL1        0.1442
     15 H          67.1420   95.5371   10.3245 H       1  UNL1        0.1442
     16 C          63.1719   87.2644   12.3179 C.3     1  UNL1        0.1257
     17 C          63.2428   85.8365   12.7719 C.3     1  UNL1        0.1586
     18 O          63.3705   85.5195   14.2325 O.3     1  UNL1       -0.3802
     19 H          64.2274   85.8362   14.5584 H       1  UNL1        0.2105
     20 C          61.1367   86.6841   10.8108 C.3     1  UNL1        0.1205
     21 C          61.3392   86.0925    9.4474 C.ar    1  UNL1       -0.0023
     22 C          60.2303   86.1370    8.4382 C.ar    1  UNL1       -0.0026
     23 C          60.4329   85.5454    7.0748 C.ar    1  UNL1       -0.0003
     24 C          61.7443   84.9093    6.7205 C.ar    1  UNL1       -0.0000
     25 C          62.8532   84.8648    7.7296 C.ar    1  UNL1       -0.0003
     26 C          62.6506   85.4564    9.0931 C.ar    1  UNL1       -0.0026
@<TRIPOS>BOND
     1     4     5    1
     2     5     6   ar
     3     6     7   ar
     4     7     8   ar
     5     8     9   ar
     6     9    10   ar
     7    10     1    1
     8     1     2    2
     9     1     3   am
    10     3    16    1
    11    16    17    1
    12    17    18    1
    13     3    20    1
    14    20    21    1
    15    21    22   ar
    16    22    23   ar
    17    23    24   ar
    18    24    25   ar
    19    25    26   ar
    20    10    11   ar
    21    11    12   ar
    22    12    13   ar
    23    13     5   ar
    24    12     7   ar
    25    26    21   ar
    26     4    14    1
    27     4    15    1
    28    18    19    1
@<TRIPOS>MOLECULE
*****
 26 28 0 0 0
SMALL
GASTEIGER

@<TRIPOS>ATOM
      1 C          63.4420   89.0872   12.5320 C.2     1  UNL1        0.2493
      2 O          63.2268   89.9452   11.3206 O.2     1  UNL1       -0.2699
      3 N          63.9158   89.7050   13.8141 N.am    1  UNL1       -0.2694
      4 N          63.6363   81.4269   14.2365 N.pl3   1  UNL1       -0.3375
      5 C          63.4273   82.8098   13.6943 C.ar    1  UNL1        0.1567
      6 N          62.5934   83.1725   12.5015 N.ar    1  UNL1       -0.2245
      7 C          62.6663   84.6597   12.3197 C.ar    1  UNL1        0.0892
      8 C          62.0458   85.5790   11.3100 C.ar    1  UNL1        0.0198
      9 C          62.3044   87.0548   11.3807 C.ar    1  UNL1        0.0061
     10 C          63.1834   87.6113   12.4613 C.ar    1  UNL1        0.0542
     11 C          63.8039   86.6919   13.4711 C.ar    1  UNL1        0.0126
     12 C          63.5453   85.2161   13.4003 C.ar    1  UNL1        0.0498
     13 S          64.0157   84.0728   14.2498 S.2     1  UNL1       -0.0520
     14 H          63.2052   80.6568   13.8002 H       1  UNL1        0.1442
     15 H          64.2045   81.2893   15.0286 H       1  UNL1        0.1442
     16 C          64.1310   88.8470   15.0255 C.3     1  UNL1        0.1257
     17 C          63.3308   89.0926   16.2703 C.3     1  UNL1        0.1586
     18 O          62.6229   87.9543   16.9436 O.3     1  UNL1       -0.3802
     19 H          61.9213   87.6210   16.3627 H       1  UNL1        0.2105
     20 C          64.1743   91.1809   13.8849 C.3     1  UNL1        0.1205
     21 C          65.4994   91.6877   14.3720 C.ar    1  UNL1       -0.0023
     22 C          65.6250   92.2464   15.7584 C.ar    1  UNL1       -0.0026
     23 C          66.9500   92.7532   16.2456 C.ar    1  UNL1       -0.0003
     24 C          68.1496   92.7012   15.3464 C.ar    1  UNL1       -0.0000
     25 C          68.0240   92.1425   13.9600 C.ar    1  UNL1       -0.0003
     26 C          66.6988   91.6357   13.4728 C.ar    1  UNL1       -0.0026
@<TRIPOS>BOND
     1     4     5    1
     2     5     6   ar
     3     6     7   ar
     4     7     8   ar
     5     8     9   ar
     6     9    10   ar
     7    10     1    1
     8     1     2    2
     9     1     3   am
    10     3    16    1
    11    16    17    1
    12    17    18    1
    13     3    20    1
    14    20    21    1
    15    21    22   ar
    16    22    23   ar
    17    23    24   ar
    18    24    25   ar
    19    25    26   ar
    20    10    11   ar
    21    11    12   ar
    22    12    13   ar
    23    13     5   ar
    24    12     7   ar
    25    26    21   ar
    26     4    14    1
    27     4    15    1
    28    18    19    1
@<TRIPOS>MOLECULE
*****
 26 28 0 0 0
SMALL
GASTEIGER

@<TRIPOS>ATOM
      1 C          63.3686   88.3735   12.6884 C.2     1  UNL1        0.2493
      2 O          62.8630   88.4374   11.2776 O.2     1  UNL1       -0.2699
      3 N          63.6553   89.6392   13.4404 N.am    1  UNL1       -0.2694
      4 N          63.1480   80.6498   14.0740 N.pl3   1  UNL1       -0.3375
      5 C          63.3414   82.1372   14.0540 C.ar    1  UNL1        0.1567
      6 N          64.0803   82.9441   15.0801 N.ar    1  UNL1       -0.2245
      7 C          64.0254   84.3844   14.6647 C.ar    1  UNL1        0.0892
      8 C          64.5793   85.6308   15.2888 C.ar    1  UNL1        0.0198
      9 C          64.3604   86.9604   14.6300 C.ar    1  UNL1        0.0061
     10 C          63.5875   87.0437   13.3472 C.ar    1  UNL1        0.0542
     11 C          63.0336   85.7973   12.7230 C.ar    1  UNL1        0.0126
     12 C          63.2526   84.4676   13.3818 C.ar    1  UNL1        0.0498
     13 S          62.8298   83.0788   13.0044 S.2     1  UNL1       -0.0520
     14 H          63.5238   80.1144   14.8097 H       1  UNL1        0.1442
     15 H          62.6452   80.2090   13.3514 H       1  UNL1        0.1442
     16 C          64.1609   89.5753   14.8512 C.3     1  UNL1        0.1257
     17 C          63.8752   90.6999   15.8020 C.3     1  UNL1        0.1586
     18 O          63.0597   90.4500   17.0359 O.3     1  UNL1       -0.3802
     19 H          62.1528   90.2173   16.7824 H       1  UNL1        0.2105
     20 C          63.4363   90.9690   12.7817 C.3     1  UNL1        0.1205
     21 C          64.6043   91.7398   12.2416 C.ar    1  UNL1       -0.0023
     22 C          65.7394   92.1143   13.1478 C.ar    1  UNL1       -0.0026
     23 C          66.9074   92.8850   12.6077 C.ar    1  UNL1       -0.0003
     24 C          66.9402   93.2814   11.1613 C.ar    1  UNL1       -0.0000
     25 C          65.8051   92.9069   10.2551 C.ar    1  UNL1       -0.0003
     26 C          64.6371   92.1361   10.7953 C.ar    1  UNL1       -0.0026
@<TRIPOS>BOND
     1     4     5    1
     2     5     6   ar
     3     6     7   ar
     4     7     8   ar
     5     8     9   ar
     6     9    10   ar
     7    10     1    1
     8     1     2    2
     9     1     3   am
    10     3    16    1
    11    16    17    1
    12    17    18    1
    13     3    20    1
    14    20    21    1
    15    21    22   ar
    16    22    23   ar
    17    23    24   ar
    18    24    25   ar
    19    25    26   ar
    20    10    11   ar
    21    11    12   ar
    22    12    13   ar
    23    13     5   ar
    24    12     7   ar
    25    26    21   ar
    26     4    14    1
    27     4    15    1
    28    18    19    1
@<TRIPOS>MOLECULE
*****
 26 28 0 0 0
SMALL
GASTEIGER

@<TRIPOS>ATOM
      1 C          63.8306   91.2227   13.0224 C.2     1  UNL1        0.2493
      2 O          63.5316   91.4091   14.4804 O.2     1  UNL1       -0.2699
      3 N          64.8195   92.1198   12.3389 N.am    1  UNL1       -0.2694
      4 N          59.1369   87.6260    7.8594 N.pl3   1  UNL1       -0.3375
      5 C          60.1101   88.0459    8.9208 C.ar    1  UNL1        0.1567
      6 N          60.9294   87.1280    9.7787 N.ar    1  UNL1       -0.2245
      7 C          61.7606   87.9722   10.6988 C.ar    1  UNL1        0.0892
      8 C          62.7562   87.6160   11.7626 C.ar    1  UNL1        0.0198
      9 C          63.4462   88.6995   12.5371 C.ar    1  UNL1        0.0061
     10 C          63.1405   90.1392   12.2478 C.ar    1  UNL1        0.0542
     11 C          62.1449   90.4955   11.1840 C.ar    1  UNL1        0.0126
     12 C          61.4549   89.4120   10.4095 C.ar    1  UNL1        0.0498
     13 S          60.4349   89.4575    9.3106 S.2     1  UNL1       -0.0520
     14 H          58.9912   86.6699    7.6756 H       1  UNL1        0.1442
     15 H          58.6437   88.3066    7.3467 H       1  UNL1        0.1442
     16 C          65.1185   91.9334   10.8809 C.3     1  UNL1        0.1257
     17 C          66.1526   92.7897   10.2119 C.3     1  UNL1        0.1586
     18 O          67.5396   92.2606    9.9969 O.3     1  UNL1       -0.3802
     19 H          67.9710   92.1260   10.8552 H       1  UNL1        0.2105
     20 C          65.5096   93.2033   13.1135 C.3     1  UNL1        0.1205
     21 C          66.6236   92.8579   14.0567 C.ar    1  UNL1       -0.0023
     22 C          66.4364   93.0331   15.5346 C.ar    1  UNL1       -0.0026
     23 C          67.5504   92.6877   16.4778 C.ar    1  UNL1       -0.0003
     24 C          68.8516   92.1671   15.9431 C.ar    1  UNL1       -0.0000
     25 C          69.0388   91.9920   14.4652 C.ar    1  UNL1       -0.0003
     26 C          67.9247   92.3374   13.5220 C.ar    1  UNL1       -0.0026
@<TRIPOS>BOND
     1     4     5    1
     2     5     6   ar
     3     6     7   ar
     4     7     8   ar
     5     8     9   ar
     6     9    10   ar
     7    10     1    1
     8     1     2    2
     9     1     3   am
    10     3    16    1
    11    16    17    1
    12    17    18    1
    13     3    20    1
    14    20    21    1
    15    21    22   ar
    16    22    23   ar
    17    23    24   ar
    18    24    25   ar
    19    25    26   ar
    20    10    11   ar
    21    11    12   ar
    22    12    13   ar
    23    13     5   ar
    24    12     7   ar
    25    26    21   ar
    26     4    14    1
    27     4    15    1
    28    18    19    1
