@<TRIPOS>MOLECULE
*****
 22 24 0 0 0
SMALL
GASTEIGER

@<TRIPOS>ATOM
      1 C          66.0128   92.3637   13.5813 C.3     1  UNL1        0.0207
      2 C          65.3940   92.5027   12.2220 C.3     1  UNL1        0.0274
      3 C          64.3373   91.5356   11.7765 C.ar    1  UNL1       -0.0258
      4 C          63.7185   91.6745   10.4172 C.ar    1  UNL1       -0.0046
      5 C          62.6620   90.7075    9.9717 C.ar    1  UNL1       -0.0003
      6 C          62.2242   89.6015   10.8856 C.ar    1  UNL1       -0.0003
      7 C          62.8430   89.4625   12.2449 C.ar    1  UNL1       -0.0043
      8 C          63.8996   90.4296   12.6903 C.ar    1  UNL1       -0.0224
      9 C          64.5185   90.2907   14.0497 C.3     1  UNL1        0.0443
     10 C          65.5750   91.2577   14.4951 C.3     1  UNL1        0.0104
     11 C          64.0807   89.1847   14.9636 C.ar    1  UNL1       -0.0175
     12 C          63.2953   89.5014   16.2017 C.ar    1  UNL1       -0.0030
     13 C          62.8575   88.3954   17.1155 C.ar    1  UNL1        0.0119
     14 C          63.2052   86.9727   16.7913 C.ar    1  UNL1        0.0682
     15 CL         62.7675   85.8667   17.7051 Cl      1  UNL1       -0.0814
     16 C          63.9906   86.6560   15.5532 C.ar    1  UNL1        0.0679
     17 CL         64.3384   85.2333   15.2290 Cl      1  UNL1       -0.0814
     18 C          64.4284   87.7620   14.6394 C.ar    1  UNL1        0.0083
     19 C          67.0694   93.3308   14.0268 C.3     1  UNL1        0.0689
     20 C          68.8333   92.8242   15.8656 C.3     1  UNL1        0.0859
     21 N          68.4266   92.8292   14.4218 N.3     1  UNL1       -0.2963
     22 H          68.4912   91.8654   14.0944 H       1  UNL1        0.1233
@<TRIPOS>BOND
     1    20    21    1
     2    21    19    1
     3     1    19    1
     4     1     2    1
     5     2     3    1
     6     3     4   ar
     7     4     5   ar
     8     5     6   ar
     9     6     7   ar
    10     7     8   ar
    11     8     9    1
    12     9    11    1
    13    11    12   ar
    14    12    13   ar
    15    13    14   ar
    16    14    15    1
    17    14    16   ar
    18    16    17    1
    19    16    18   ar
    20     9    10    1
    21    10     1    1
    22     8     3   ar
    23    18    11   ar
    24    21    22    1
@<TRIPOS>MOLECULE
*****
 22 24 0 0 0
SMALL
GASTEIGER

@<TRIPOS>ATOM
      1 C          62.6854   89.5063   11.5270 C.3     1  UNL1        0.0207
      2 C          61.7335   89.8419   10.4175 C.3     1  UNL1        0.0274
      3 C          61.0732   88.7435    9.6379 C.ar    1  UNL1       -0.0258
      4 C          60.1212   89.0790    8.5283 C.ar    1  UNL1       -0.0046
      5 C          59.4610   87.9807    7.7488 C.ar    1  UNL1       -0.0003
      6 C          59.7527   86.5468    8.0788 C.ar    1  UNL1       -0.0003
      7 C          60.7047   86.2113    9.1883 C.ar    1  UNL1       -0.0043
      8 C          61.3649   87.3096    9.9679 C.ar    1  UNL1       -0.0224
      9 C          62.3169   86.9741   11.0775 C.3     1  UNL1        0.0443
     10 C          62.9772   88.0725   11.8570 C.3     1  UNL1        0.0104
     11 C          62.6087   85.5403   11.4075 C.ar    1  UNL1       -0.0175
     12 C          63.1625   84.6261   10.3550 C.ar    1  UNL1       -0.0030
     13 C          63.4543   83.1922   10.6850 C.ar    1  UNL1        0.0119
     14 C          63.1921   82.6725   12.0675 C.ar    1  UNL1        0.0682
     15 CL         63.4839   81.2386   12.3975 Cl      1  UNL1       -0.0814
     16 C          62.6383   83.5866   13.1199 C.ar    1  UNL1        0.0679
     17 CL         62.3762   83.0669   14.5024 Cl      1  UNL1       -0.0814
     18 C          62.3466   85.0205   12.7899 C.ar    1  UNL1        0.0083
     19 C          63.3457   90.6047   12.3066 C.3     1  UNL1        0.0689
     20 C          63.8293   90.3888   14.8501 C.3     1  UNL1        0.0859
     21 N          62.9478   90.8574   13.7306 N.3     1  UNL1       -0.2963
     22 H          62.8517   91.8676   13.8346 H       1  UNL1        0.1233
@<TRIPOS>BOND
     1    20    21    1
     2    21    19    1
     3     1    19    1
     4     1     2    1
     5     2     3    1
     6     3     4   ar
     7     4     5   ar
     8     5     6   ar
     9     6     7   ar
    10     7     8   ar
    11     8     9    1
    12     9    11    1
    13    11    12   ar
    14    12    13   ar
    15    13    14   ar
    16    14    15    1
    17    14    16   ar
    18    16    17    1
    19    16    18   ar
    20     9    10    1
    21    10     1    1
    22     8     3   ar
    23    18    11   ar
    24    21    22    1
@<TRIPOS>MOLECULE
*****
 22 24 0 0 0
SMALL
GASTEIGER

@<TRIPOS>ATOM
      1 C          63.8037   91.2612   11.3059 C.3     1  UNL1        0.0207
      2 C          64.7988   92.3505   11.5761 C.3     1  UNL1        0.0274
      3 C          65.4959   92.4174   12.9027 C.ar    1  UNL1       -0.0258
      4 C          66.4910   93.5068   13.1729 C.ar    1  UNL1       -0.0046
      5 C          67.1880   93.5736   14.4994 C.ar    1  UNL1       -0.0003
      6 C          66.8899   92.5512   15.5557 C.ar    1  UNL1       -0.0003
      7 C          65.8948   91.4619   15.2855 C.ar    1  UNL1       -0.0043
      8 C          65.1978   91.3950   13.9590 C.ar    1  UNL1       -0.0224
      9 C          64.2026   90.3057   13.6887 C.3     1  UNL1        0.0443
     10 C          63.5056   90.2388   12.3622 C.3     1  UNL1        0.0104
     11 C          63.9044   89.2832   14.7450 C.ar    1  UNL1       -0.0175
     12 C          63.2273   89.6959   16.0183 C.ar    1  UNL1       -0.0030
     13 C          62.9292   88.6734   17.0746 C.ar    1  UNL1        0.0119
     14 C          63.3082   87.2384   16.8576 C.ar    1  UNL1        0.0682
     15 CL         63.0100   86.2159   17.9139 Cl      1  UNL1       -0.0814
     16 C          63.9853   86.8258   15.5843 C.ar    1  UNL1        0.0679
     17 CL         64.3643   85.3907   15.3673 Cl      1  UNL1       -0.0814
     18 C          64.2834   87.8482   14.5280 C.ar    1  UNL1        0.0083
     19 C          63.1066   91.1943    9.9794 C.3     1  UNL1        0.0689
     20 C          61.4723   89.2027    9.6440 C.3     1  UNL1        0.0859
     21 N          61.7065   90.6631    9.8938 N.3     1  UNL1       -0.2963
     22 H          61.2520   90.8870   10.7791 H       1  UNL1        0.1233
@<TRIPOS>BOND
     1    20    21    1
     2    21    19    1
     3     1    19    1
     4     1     2    1
     5     2     3    1
     6     3     4   ar
     7     4     5   ar
     8     5     6   ar
     9     6     7   ar
    10     7     8   ar
    11     8     9    1
    12     9    11    1
    13    11    12   ar
    14    12    13   ar
    15    13    14   ar
    16    14    15    1
    17    14    16   ar
    18    16    17    1
    19    16    18   ar
    20     9    10    1
    21    10     1    1
    22     8     3   ar
    23    18    11   ar
    24    21    22    1
@<TRIPOS>MOLECULE
*****
 22 24 0 0 0
SMALL
GASTEIGER

@<TRIPOS>ATOM
      1 C          60.2931   87.6165    8.6815 C.3     1  UNL1        0.0207
      2 C          60.6343   88.9694    9.2319 C.3     1  UNL1        0.0274
      3 C          61.5877   89.0920   10.3836 C.ar    1  UNL1       -0.0258
      4 C          61.9288   90.4450   10.9340 C.ar    1  UNL1       -0.0046
      5 C          62.8821   90.5675   12.0856 C.ar    1  UNL1       -0.0003
      6 C          63.4943   89.3371   12.6867 C.ar    1  UNL1       -0.0003
      7 C          63.1532   87.9841   12.1362 C.ar    1  UNL1       -0.0043
      8 C          62.1998   87.8616   10.9847 C.ar    1  UNL1       -0.0224
      9 C          61.8586   86.5086   10.4341 C.3     1  UNL1        0.0443
     10 C          60.9053   86.3860    9.2826 C.3     1  UNL1        0.0104
     11 C          62.4708   85.2782   11.0352 C.ar    1  UNL1       -0.0175
     12 C          63.3242   84.3769   10.1928 C.ar    1  UNL1       -0.0030
     13 C          63.9364   83.1465   10.7939 C.ar    1  UNL1        0.0119
     14 C          63.6951   82.8173   12.2374 C.ar    1  UNL1        0.0682
     15 CL         64.3073   81.5869   12.8385 Cl      1  UNL1       -0.0814
     16 C          62.8417   83.7185   13.0797 C.ar    1  UNL1        0.0679
     17 CL         62.6005   83.3893   14.5232 Cl      1  UNL1       -0.0814
     18 C          62.2296   84.9489   12.4786 C.ar    1  UNL1        0.0083
     19 C          59.3398   87.4939    7.5299 C.3     1  UNL1        0.0689
     20 C          59.3098   89.6872    6.1378 C.3     1  UNL1        0.0859
     21 N          58.6095   88.7044    7.0286 N.3     1  UNL1       -0.2963
     22 H          57.7975   88.3657    6.5125 H       1  UNL1        0.1233
@<TRIPOS>BOND
     1    20    21    1
     2    21    19    1
     3     1    19    1
     4     1     2    1
     5     2     3    1
     6     3     4   ar
     7     4     5   ar
     8     5     6   ar
     9     6     7   ar
    10     7     8   ar
    11     8     9    1
    12     9    11    1
    13    11    12   ar
    14    12    13   ar
    15    13    14   ar
    16    14    15    1
    17    14    16   ar
    18    16    17    1
    19    16    18   ar
    20     9    10    1
    21    10     1    1
    22     8     3   ar
    23    18    11   ar
    24    21    22    1
@<TRIPOS>MOLECULE
*****
 22 24 0 0 0
SMALL
GASTEIGER

@<TRIPOS>ATOM
      1 C          63.8988   85.0685   14.1162 C.3     1  UNL1        0.0207
      2 C          64.4322   86.3337   14.7199 C.3     1  UNL1        0.0274
      3 C          64.1572   87.6531   14.0612 C.ar    1  UNL1       -0.0258
      4 C          64.6907   88.9184   14.6649 C.ar    1  UNL1       -0.0046
      5 C          64.4157   90.2376   14.0063 C.ar    1  UNL1       -0.0003
      6 C          63.6072   90.2916   12.7440 C.ar    1  UNL1       -0.0003
      7 C          63.0738   89.0264   12.1403 C.ar    1  UNL1       -0.0043
      8 C          63.3488   87.7071   12.7989 C.ar    1  UNL1       -0.0224
      9 C          62.8153   86.4417   12.1953 C.3     1  UNL1        0.0443
     10 C          63.0903   85.1225   12.8539 C.3     1  UNL1        0.0104
     11 C          62.0068   86.4957   10.9329 C.ar    1  UNL1       -0.0175
     12 C          60.7248   87.2737   10.8961 C.ar    1  UNL1       -0.0030
     13 C          59.9163   87.3277    9.6338 C.ar    1  UNL1        0.0119
     14 C          60.3899   86.6037    8.4083 C.ar    1  UNL1        0.0682
     15 CL         59.5814   86.6577    7.1460 Cl      1  UNL1       -0.0814
     16 C          61.6718   85.8258    8.4452 C.ar    1  UNL1        0.0679
     17 CL         62.1453   85.1018    7.2197 Cl      1  UNL1       -0.0814
     18 C          62.4803   85.7718    9.7075 C.ar    1  UNL1        0.0083
     19 C          64.1738   83.7491   14.7749 C.3     1  UNL1        0.0689
     20 C          62.2028   82.0849   14.4657 C.3     1  UNL1        0.0859
     21 N          63.0444   82.9509   15.3556 N.3     1  UNL1       -0.2963
     22 H          63.4499   82.3391   16.0638 H       1  UNL1        0.1233
@<TRIPOS>BOND
     1    20    21    1
     2    21    19    1
     3     1    19    1
     4     1     2    1
     5     2     3    1
     6     3     4   ar
     7     4     5   ar
     8     5     6   ar
     9     6     7   ar
    10     7     8   ar
    11     8     9    1
    12     9    11    1
    13    11    12   ar
    14    12    13   ar
    15    13    14   ar
    16    14    15    1
    17    14    16   ar
    18    16    17    1
    19    16    18   ar
    20     9    10    1
    21    10     1    1
    22     8     3   ar
    23    18    11   ar
    24    21    22    1
@<TRIPOS>MOLECULE
*****
 22 24 0 0 0
SMALL
GASTEIGER

@<TRIPOS>ATOM
      1 C          64.0255   89.0940   13.6283 C.3     1  UNL1        0.0207
      2 C          64.4790   87.9860   14.5319 C.3     1  UNL1        0.0274
      3 C          64.1119   86.5655   14.2194 C.ar    1  UNL1       -0.0258
      4 C          64.5654   85.4575   15.1231 C.ar    1  UNL1       -0.0046
      5 C          64.1983   84.0371   14.8106 C.ar    1  UNL1       -0.0003
      6 C          63.3777   83.7247   13.5944 C.ar    1  UNL1       -0.0003
      7 C          62.9242   84.8327   12.6908 C.ar    1  UNL1       -0.0043
      8 C          63.2913   86.2531   13.0033 C.ar    1  UNL1       -0.0224
      9 C          62.8378   87.3612   12.0996 C.3     1  UNL1        0.0443
     10 C          63.2049   88.7816   12.4121 C.3     1  UNL1        0.0104
     11 C          62.0172   87.0489   10.8835 C.ar    1  UNL1       -0.0175
     12 C          60.6066   87.5490   10.7818 C.ar    1  UNL1       -0.0030
     13 C          59.7860   87.2366    9.5656 C.ar    1  UNL1        0.0119
     14 C          60.3760   86.4241    8.4512 C.ar    1  UNL1        0.0682
     15 CL         59.5554   86.1117    7.2350 Cl      1  UNL1       -0.0814
     16 C          61.7865   85.9241    8.5529 C.ar    1  UNL1        0.0679
     17 CL         62.3764   85.1116    7.4385 Cl      1  UNL1       -0.0814
     18 C          62.6071   86.2364    9.7691 C.ar    1  UNL1        0.0083
     19 C          64.3926   90.5144   13.9408 C.3     1  UNL1        0.0689
     20 C          63.9706   91.3388   16.3681 C.3     1  UNL1        0.0859
     21 N          63.5754   91.3019   14.9216 N.3     1  UNL1       -0.2963
     22 H          63.5707   92.2674   14.5929 H       1  UNL1        0.1233
@<TRIPOS>BOND
     1    20    21    1
     2    21    19    1
     3     1    19    1
     4     1     2    1
     5     2     3    1
     6     3     4   ar
     7     4     5   ar
     8     5     6   ar
     9     6     7   ar
    10     7     8   ar
    11     8     9    1
    12     9    11    1
    13    11    12   ar
    14    12    13   ar
    15    13    14   ar
    16    14    15    1
    17    14    16   ar
    18    16    17    1
    19    16    18   ar
    20     9    10    1
    21    10     1    1
    22     8     3   ar
    23    18    11   ar
    24    21    22    1
@<TRIPOS>MOLECULE
*****
 22 24 0 0 0
SMALL
GASTEIGER

@<TRIPOS>ATOM
      1 C          63.5507   89.8997   15.0541 C.3     1  UNL1        0.0207
      2 C          64.6190   90.9320   14.8468 C.3     1  UNL1        0.0274
      3 C          64.8455   91.5136   13.4827 C.ar    1  UNL1       -0.0258
      4 C          65.9138   92.5459   13.2754 C.ar    1  UNL1       -0.0046
      5 C          66.1402   93.1274   11.9113 C.ar    1  UNL1       -0.0003
      6 C          65.2983   92.6765   10.7546 C.ar    1  UNL1       -0.0003
      7 C          64.2300   91.6442   10.9620 C.ar    1  UNL1       -0.0043
      8 C          64.0036   91.0627   12.3260 C.ar    1  UNL1       -0.0224
      9 C          62.9353   90.0303   12.5333 C.3     1  UNL1        0.0443
     10 C          62.7089   89.4489   13.8974 C.3     1  UNL1        0.0104
     11 C          62.0934   89.5795   11.3766 C.ar    1  UNL1       -0.0175
     12 C          60.9282   90.4108   10.9281 C.ar    1  UNL1       -0.0030
     13 C          60.0863   89.9600    9.7714 C.ar    1  UNL1        0.0119
     14 C          60.4096   88.6777    9.0632 C.ar    1  UNL1        0.0682
     15 CL         59.5677   88.2269    7.9065 Cl      1  UNL1       -0.0814
     16 C          61.5748   87.8464    9.5118 C.ar    1  UNL1        0.0679
     17 CL         61.8981   86.5642    8.8037 Cl      1  UNL1       -0.0814
     18 C          62.4167   88.2973   10.6685 C.ar    1  UNL1        0.0083
     19 C          63.3243   89.3182   16.4181 C.3     1  UNL1        0.0689
     20 C          62.7083   87.2677   17.8898 C.3     1  UNL1        0.0859
     21 N          63.1942   87.8336   16.5884 N.3     1  UNL1       -0.2963
     22 H          62.5492   87.5100   15.8675 H       1  UNL1        0.1233
@<TRIPOS>BOND
     1    20    21    1
     2    21    19    1
     3     1    19    1
     4     1     2    1
     5     2     3    1
     6     3     4   ar
     7     4     5   ar
     8     5     6   ar
     9     6     7   ar
    10     7     8   ar
    11     8     9    1
    12     9    11    1
    13    11    12   ar
    14    12    13   ar
    15    13    14   ar
    16    14    15    1
    17    14    16   ar
    18    16    17    1
    19    16    18   ar
    20     9    10    1
    21    10     1    1
    22     8     3   ar
    23    18    11   ar
    24    21    22    1
@<TRIPOS>MOLECULE
*****
 22 24 0 0 0
SMALL
GASTEIGER

@<TRIPOS>ATOM
      1 C          65.3934   92.7369   10.9830 C.3     1  UNL1        0.0207
      2 C          65.6833   92.6680   12.4531 C.3     1  UNL1        0.0274
      3 C          64.9095   91.7258   13.3268 C.ar    1  UNL1       -0.0258
      4 C          65.1994   91.6570   14.7969 C.ar    1  UNL1       -0.0046
      5 C          64.4256   90.7148   15.6706 C.ar    1  UNL1       -0.0003
      6 C          63.3618   89.8415   15.0742 C.ar    1  UNL1       -0.0003
      7 C          63.0718   89.9104   13.6042 C.ar    1  UNL1       -0.0043
      8 C          63.8456   90.8525   12.7305 C.ar    1  UNL1       -0.0224
      9 C          63.5557   90.9215   11.2603 C.3     1  UNL1        0.0443
     10 C          64.3296   91.8636   10.3866 C.3     1  UNL1        0.0104
     11 C          62.4919   90.0482   10.6640 C.ar    1  UNL1       -0.0175
     12 C          61.0863   90.5570   10.5397 C.ar    1  UNL1       -0.0030
     13 C          60.0225   89.6838    9.9434 C.ar    1  UNL1        0.0119
     14 C          60.3643   88.3016    9.4713 C.ar    1  UNL1        0.0682
     15 CL         59.3004   87.4283    8.8749 Cl      1  UNL1       -0.0814
     16 C          61.7698   87.7928    9.5955 C.ar    1  UNL1        0.0679
     17 CL         62.1116   86.4106    9.1234 Cl      1  UNL1       -0.0814
     18 C          62.8336   88.6660   10.1919 C.ar    1  UNL1        0.0083
     19 C          66.1673   93.6791   10.1092 C.3     1  UNL1        0.0689
     20 C          68.4226   92.6643    9.3136 C.3     1  UNL1        0.0859
     21 N          67.6669   93.6659   10.1356 N.3     1  UNL1       -0.2963
     22 H          67.9750   94.5893    9.8309 H       1  UNL1        0.1233
@<TRIPOS>BOND
     1    20    21    1
     2    21    19    1
     3     1    19    1
     4     1     2    1
     5     2     3    1
     6     3     4   ar
     7     4     5   ar
     8     5     6   ar
     9     6     7   ar
    10     7     8   ar
    11     8     9    1
    12     9    11    1
    13    11    12   ar
    14    12    13   ar
    15    13    14   ar
    16    14    15    1
    17    14    16   ar
    18    16    17    1
    19    16    18   ar
    20     9    10    1
    21    10     1    1
    22     8     3   ar
    23    18    11   ar
    24    21    22    1
@<TRIPOS>MOLECULE
*****
 22 24 0 0 0
SMALL
GASTEIGER

@<TRIPOS>ATOM
      1 C          63.1437   83.5998   12.7353 C.3     1  UNL1        0.0207
      2 C          63.8863   84.3953   13.7675 C.3     1  UNL1        0.0274
      3 C          63.8738   85.8943   13.7113 C.ar    1  UNL1       -0.0258
      4 C          64.6164   86.6898   14.7435 C.ar    1  UNL1       -0.0046
      5 C          64.6038   88.1886   14.6872 C.ar    1  UNL1       -0.0003
      6 C          63.8485   88.8920   13.5987 C.ar    1  UNL1       -0.0003
      7 C          63.1058   88.0965   12.5665 C.ar    1  UNL1       -0.0043
      8 C          63.1184   86.5976   12.6228 C.ar    1  UNL1       -0.0224
      9 C          62.3757   85.8020   11.5905 C.3     1  UNL1        0.0443
     10 C          62.3884   84.3031   11.6468 C.3     1  UNL1        0.0104
     11 C          61.6204   86.5054   10.5020 C.ar    1  UNL1       -0.0175
     12 C          61.3328   85.7979    9.2109 C.ar    1  UNL1       -0.0030
     13 C          60.5775   86.5012    8.1224 C.ar    1  UNL1        0.0119
     14 C          60.1098   87.9120    8.3250 C.ar    1  UNL1        0.0682
     15 CL         59.3545   88.6154    7.2365 Cl      1  UNL1       -0.0814
     16 C          60.3975   88.6194    9.6161 C.ar    1  UNL1        0.0679
     17 CL         59.9298   90.0302    9.8187 Cl      1  UNL1       -0.0814
     18 C          61.1528   87.9161   10.7046 C.ar    1  UNL1        0.0083
     19 C          63.1562   82.1009   12.7915 C.3     1  UNL1        0.0689
     20 C          61.2208   81.0617   14.1785 C.3     1  UNL1        0.0859
     21 N          62.6755   81.3925   14.0232 N.3     1  UNL1       -0.2963
     22 H          63.1851   80.5103   14.0733 H       1  UNL1        0.1233
@<TRIPOS>BOND
     1    20    21    1
     2    21    19    1
     3     1    19    1
     4     1     2    1
     5     2     3    1
     6     3     4   ar
     7     4     5   ar
     8     5     6   ar
     9     6     7   ar
    10     7     8   ar
    11     8     9    1
    12     9    11    1
    13    11    12   ar
    14    12    13   ar
    15    13    14   ar
    16    14    15    1
    17    14    16   ar
    18    16    17    1
    19    16    18   ar
    20     9    10    1
    21    10     1    1
    22     8     3   ar
    23    18    11   ar
    24    21    22    1
