@<TRIPOS>MOLECULE
*****
 29 32 0 0 0
SMALL
GASTEIGER

@<TRIPOS>ATOM
      1 C          62.4586   90.2883   11.3506 C.3     1  UNL1        0.0844
      2 C          62.9111   90.9998   10.1100 C.3     1  UNL1        0.0243
      3 C          64.0525   91.9708   10.1764 C.3     1  UNL1        0.0449
      4 C          64.7414   92.2302   11.4834 C.ar    1  UNL1        0.0336
      5 C          64.2890   91.5186   12.7239 C.ar    1  UNL1       -0.0076
      6 C          65.1542   91.9743   13.8614 C.ar    1  UNL1        0.0160
      7 C          65.1706   91.6132   15.3172 C.ar    1  UNL1        0.0218
      8 C          66.1743   92.2453   16.2353 C.ar    1  UNL1        0.0990
      9 N          67.1615   93.2385   15.6978 N.ar    1  UNL1       -0.2408
     10 C          67.1450   93.5996   14.2420 C.ar    1  UNL1        0.1160
     11 C          66.1414   92.9675   13.3238 C.ar    1  UNL1        0.0791
     12 N          65.8863   93.1256   11.8542 N.ar    1  UNL1       -0.3244
     13 C          63.1476   90.5477   12.6575 C.3     1  UNL1        0.0452
     14 C          60.1849   89.4230   12.2623 C.3     1  UNL1        0.1149
     15 N          61.3172   89.3173   11.2842 N.3     1  UNL1       -0.1551
     16 S          61.3081   88.2406   10.2398 S.O2    1  UNL1        0.0633
     17 O          62.3818   87.5067   10.9871 O.2     1  UNL1       -0.1528
     18 O          60.2344   88.9747    9.4925 O.2     1  UNL1       -0.1528
     19 C          61.2990   87.1641    9.1954 C.ar    1  UNL1        0.1223
     20 C          60.0551   86.9021    8.3992 C.ar    1  UNL1        0.0222
     21 C          60.0461   85.8255    7.3548 C.ar    1  UNL1        0.0310
     22 C          61.2809   85.0108    7.1065 C.ar    1  UNL1        0.1402
     23 F          61.2719   83.9342    6.0621 F       1  UNL1       -0.2042
     24 C          62.5249   85.2729    7.9028 C.ar    1  UNL1        0.0310
     25 C          62.5339   86.3495    8.9472 C.ar    1  UNL1        0.0222
     26 C          66.6432   94.0219   10.9194 C.3     1  UNL1        0.1475
     27 C          67.6127   93.4342    9.9373 C.2     1  UNL1        0.0732
     28 O          68.4793   92.2777   10.3394 O.co2   1  UNL1       -0.5472
     29 O          67.7157   94.0028    8.5531 O.co2   1  UNL1       -0.5472
@<TRIPOS>UNITY_ATOM_ATTR
28 1
charge -1
@<TRIPOS>BOND
     1    14    15    1
     2     1    15    1
     3     1     2    1
     4     2     3    1
     5     3     4    1
     6     4     5   ar
     7     5     6   ar
     8     6     7   ar
     9     7     8   ar
    10     8     9   ar
    11     9    10   ar
    12    10    11   ar
    13    11    12   ar
    14    12    26    1
    15    26    27    1
    16    27    28   ar
    17    27    29   ar
    18     5    13    1
    19    15    16    1
    20    16    17    2
    21    16    18    2
    22    16    19    1
    23    19    20   ar
    24    20    21   ar
    25    21    22   ar
    26    22    23    1
    27    22    24   ar
    28    24    25   ar
    29    13     1    1
    30    25    19   ar
    31    12     4   ar
    32    11     6   ar
@<TRIPOS>MOLECULE
*****
 29 32 0 0 0
SMALL
GASTEIGER

@<TRIPOS>ATOM
      1 C          62.4441   89.5767   11.3265 C.3     1  UNL1        0.0844
      2 C          62.6303   90.3437   10.0509 C.3     1  UNL1        0.0243
      3 C          63.5798   91.5040   10.0054 C.3     1  UNL1        0.0449
      4 C          64.3431   91.8973   11.2353 C.ar    1  UNL1        0.0336
      5 C          64.1568   91.1304   12.5109 C.ar    1  UNL1       -0.0076
      6 C          65.0397   91.7464   13.5554 C.ar    1  UNL1        0.0160
      7 C          65.2716   91.4106   14.9988 C.ar    1  UNL1        0.0218
      8 C          66.2356   92.2225   15.8121 C.ar    1  UNL1        0.0990
      9 N          66.9675   93.3702   15.1821 N.ar    1  UNL1       -0.2408
     10 C          66.7355   93.7061   13.7388 C.ar    1  UNL1        0.1160
     11 C          65.7716   92.8942   12.9254 C.ar    1  UNL1        0.0791
     12 N          65.3411   92.9874   11.4915 N.ar    1  UNL1       -0.3244
     13 C          63.2073   89.9701   12.5565 C.3     1  UNL1        0.0452
     14 C          60.0380   88.6495   11.6447 C.3     1  UNL1        0.1149
     15 N          61.4945   88.4163   11.3721 N.3     1  UNL1       -0.1551
     16 S          62.0015   87.0230   11.1451 S.O2    1  UNL1        0.0633
     17 O          62.8859   87.1485   12.3501 O.2     1  UNL1       -0.1528
     18 O          61.1170   86.8975    9.9401 O.2     1  UNL1       -0.1528
     19 C          62.5084   85.6297   10.9181 C.ar    1  UNL1        0.1223
     20 C          62.9658   85.2112    9.5522 C.ar    1  UNL1        0.0222
     21 C          63.4727   83.8178    9.3252 C.ar    1  UNL1        0.0310
     22 C          63.5224   82.8429   10.4641 C.ar    1  UNL1        0.1402
     23 F          64.0293   81.4495   10.2371 F       1  UNL1       -0.2042
     24 C          63.0650   83.2614   11.8301 C.ar    1  UNL1        0.0310
     25 C          62.5581   84.6548   12.0570 C.ar    1  UNL1        0.0222
     26 C          65.8238   93.9941   10.4898 C.3     1  UNL1        0.1475
     27 C          67.1117   93.7640    9.7561 C.2     1  UNL1        0.0732
     28 O          67.3996   94.5180    8.4916 O.co2   1  UNL1       -0.5472
     29 O          68.1118   92.7800   10.2867 O.co2   1  UNL1       -0.5472
@<TRIPOS>UNITY_ATOM_ATTR
28 1
charge -1
@<TRIPOS>BOND
     1    14    15    1
     2     1    15    1
     3     1     2    1
     4     2     3    1
     5     3     4    1
     6     4     5   ar
     7     5     6   ar
     8     6     7   ar
     9     7     8   ar
    10     8     9   ar
    11     9    10   ar
    12    10    11   ar
    13    11    12   ar
    14    12    26    1
    15    26    27    1
    16    27    28   ar
    17    27    29   ar
    18     5    13    1
    19    15    16    1
    20    16    17    2
    21    16    18    2
    22    16    19    1
    23    19    20   ar
    24    20    21   ar
    25    21    22   ar
    26    22    23    1
    27    22    24   ar
    28    24    25   ar
    29    13     1    1
    30    25    19   ar
    31    12     4   ar
    32    11     6   ar
@<TRIPOS>MOLECULE
*****
 29 32 0 0 0
SMALL
GASTEIGER

@<TRIPOS>ATOM
      1 C          62.0956   89.7325   12.2868 C.3     1  UNL1        0.0844
      2 C          62.5943   89.3147   13.6384 C.3     1  UNL1        0.0243
      3 C          63.8453   89.9248   14.1977 C.3     1  UNL1        0.0449
      4 C          64.5975   90.9528   13.4056 C.ar    1  UNL1        0.0336
      5 C          64.0987   91.3706   12.0540 C.ar    1  UNL1       -0.0076
      6 C          65.0445   92.3992   11.5085 C.ar    1  UNL1        0.0160
      7 C          65.0592   93.1656   10.2192 C.ar    1  UNL1        0.0218
      8 C          66.1572   94.1498    9.9443 C.ar    1  UNL1        0.0990
      9 N          67.2405   94.3677   10.9587 N.ar    1  UNL1       -0.2408
     10 C          67.2258   93.6013   12.2480 C.ar    1  UNL1        0.1160
     11 C          66.1277   92.6171   12.5229 C.ar    1  UNL1        0.0791
     12 N          65.8515   91.7231   13.6953 N.ar    1  UNL1       -0.3244
     13 C          62.8478   90.7605   11.4947 C.3     1  UNL1        0.0452
     14 C          59.5089   89.4901   12.3025 C.3     1  UNL1        0.1149
     15 N          60.8446   89.1224   11.7274 N.3     1  UNL1       -0.1551
     16 S          60.9294   88.1447   10.5930 S.O2    1  UNL1        0.0633
     17 O          61.2728   87.0514   11.5609 O.2     1  UNL1       -0.1528
     18 O          60.5860   89.2381    9.6251 O.2     1  UNL1       -0.1528
     19 C          61.0142   87.1671    9.4586 C.ar    1  UNL1        0.1223
     20 C          62.2912   86.4225    9.2040 C.ar    1  UNL1        0.0222
     21 C          62.3759   85.4449    8.0695 C.ar    1  UNL1        0.0310
     22 C          61.1837   85.2118    7.1895 C.ar    1  UNL1        0.1402
     23 F          61.2684   84.2342    6.0550 F       1  UNL1       -0.2042
     24 C          59.9066   85.9564    7.4442 C.ar    1  UNL1        0.0310
     25 C          59.8219   86.9341    8.5787 C.ar    1  UNL1        0.0222
     26 C          66.6832   91.6180   14.9392 C.3     1  UNL1        0.1475
     27 C          66.5856   92.6756   15.9983 C.2     1  UNL1        0.0732
     28 O          65.4243   92.6814   16.9477 O.co2   1  UNL1       -0.5472
     29 O          67.6493   93.7275   16.1082 O.co2   1  UNL1       -0.5472
@<TRIPOS>UNITY_ATOM_ATTR
28 1
charge -1
@<TRIPOS>BOND
     1    14    15    1
     2     1    15    1
     3     1     2    1
     4     2     3    1
     5     3     4    1
     6     4     5   ar
     7     5     6   ar
     8     6     7   ar
     9     7     8   ar
    10     8     9   ar
    11     9    10   ar
    12    10    11   ar
    13    11    12   ar
    14    12    26    1
    15    26    27    1
    16    27    28   ar
    17    27    29   ar
    18     5    13    1
    19    15    16    1
    20    16    17    2
    21    16    18    2
    22    16    19    1
    23    19    20   ar
    24    20    21   ar
    25    21    22   ar
    26    22    23    1
    27    22    24   ar
    28    24    25   ar
    29    13     1    1
    30    25    19   ar
    31    12     4   ar
    32    11     6   ar
@<TRIPOS>MOLECULE
*****
 29 32 0 0 0
SMALL
GASTEIGER

@<TRIPOS>ATOM
      1 C          64.5110   89.9438   13.7843 C.3     1  UNL1        0.0844
      2 C          64.8227   88.7960   14.6983 C.3     1  UNL1        0.0243
      3 C          64.3080   87.4233   14.3808 C.3     1  UNL1        0.0449
      4 C          63.4817   87.1984   13.1493 C.ar    1  UNL1        0.0336
      5 C          63.1701   88.3462   12.2353 C.ar    1  UNL1       -0.0076
      6 C          62.3374   87.8237   11.1022 C.ar    1  UNL1        0.0160
      7 C          61.7378   88.4971    9.9035 C.ar    1  UNL1        0.0218
      8 C          60.9353   87.6998    8.9186 C.ar    1  UNL1        0.0990
      9 N          60.7324   86.2290    9.1324 N.ar    1  UNL1       -0.2408
     10 C          61.3320   85.5556   10.3311 C.ar    1  UNL1        0.1160
     11 C          62.1345   86.3530   11.3160 C.ar    1  UNL1        0.0791
     12 N          62.8417   85.9665   12.5811 N.ar    1  UNL1       -0.3244
     13 C          63.6847   89.7189   12.5528 C.3     1  UNL1        0.0452
     14 C          64.9532   91.8384   15.5063 C.3     1  UNL1        0.1149
     15 N          65.0257   91.3166   14.1018 N.3     1  UNL1       -0.1551
     16 S          65.6128   92.1674   13.0149 S.O2    1  UNL1        0.0633
     17 O          66.9893   91.8949   13.5451 O.2     1  UNL1       -0.1528
     18 O          64.2363   92.4399   12.4847 O.2     1  UNL1       -0.1528
     19 C          66.1999   93.0182   11.9280 C.ar    1  UNL1        0.1223
     20 C          66.8966   92.3749   10.7657 C.ar    1  UNL1        0.0222
     21 C          67.4836   93.2258    9.6788 C.ar    1  UNL1        0.0310
     22 C          67.3740   94.7199    9.7541 C.ar    1  UNL1        0.1402
     23 F          67.9610   95.5708    8.6672 F       1  UNL1       -0.2042
     24 C          66.6773   95.3632   10.9164 C.ar    1  UNL1        0.0310
     25 C          66.0902   94.5123   12.0033 C.ar    1  UNL1        0.0222
     26 C          62.8988   84.5899   13.1740 C.3     1  UNL1        0.1475
     27 C          62.8970   84.4141   14.6636 C.2     1  UNL1        0.0732
     28 O          61.7138   84.8610   15.4702 O.co2   1  UNL1       -0.5472
     29 O          64.0783   83.7914   15.3469 O.co2   1  UNL1       -0.5472
@<TRIPOS>UNITY_ATOM_ATTR
28 1
charge -1
@<TRIPOS>BOND
     1    14    15    1
     2     1    15    1
     3     1     2    1
     4     2     3    1
     5     3     4    1
     6     4     5   ar
     7     5     6   ar
     8     6     7   ar
     9     7     8   ar
    10     8     9   ar
    11     9    10   ar
    12    10    11   ar
    13    11    12   ar
    14    12    26    1
    15    26    27    1
    16    27    28   ar
    17    27    29   ar
    18     5    13    1
    19    15    16    1
    20    16    17    2
    21    16    18    2
    22    16    19    1
    23    19    20   ar
    24    20    21   ar
    25    21    22   ar
    26    22    23    1
    27    22    24   ar
    28    24    25   ar
    29    13     1    1
    30    25    19   ar
    31    12     4   ar
    32    11     6   ar
@<TRIPOS>MOLECULE
*****
 29 32 0 0 0
SMALL
GASTEIGER

@<TRIPOS>ATOM
      1 C          63.4124   85.8003   12.9611 C.3     1  UNL1        0.0844
      2 C          63.8753   87.1198   13.5041 C.3     1  UNL1        0.0243
      3 C          63.4346   88.3959   12.8503 C.3     1  UNL1        0.0449
      4 C          62.5312   88.3525   11.6537 C.ar    1  UNL1        0.0336
      5 C          62.0683   87.0330   11.1108 C.ar    1  UNL1       -0.0076
      6 C          61.1873   87.3022    9.9270 C.ar    1  UNL1        0.0160
      7 C          60.4489   86.3862    8.9965 C.ar    1  UNL1        0.0218
      8 C          59.6288   86.9562    7.8774 C.ar    1  UNL1        0.0990
      9 N          59.5471   88.4420    7.6887 N.ar    1  UNL1       -0.2408
     10 C          60.2855   89.3579    8.6191 C.ar    1  UNL1        0.1160
     11 C          61.1056   88.7880    9.7383 C.ar    1  UNL1        0.0791
     12 N          61.9361   89.4371   10.8054 N.ar    1  UNL1       -0.3244
     13 C          62.5090   85.7569   11.7645 C.3     1  UNL1        0.0452
     14 C          64.5836   84.5656   14.9243 C.3     1  UNL1        0.1149
     15 N          63.8531   84.5241   13.6149 N.3     1  UNL1       -0.1551
     16 S          63.5632   83.2066   12.9591 S.O2    1  UNL1        0.0633
     17 O          64.7032   83.4282   12.0098 O.2     1  UNL1       -0.1528
     18 O          62.4231   82.9849   13.9085 O.2     1  UNL1       -0.1528
     19 C          63.2732   81.8890   12.3035 C.ar    1  UNL1        0.1223
     20 C          63.4222   81.7415   10.8182 C.ar    1  UNL1        0.0222
     21 C          63.1322   80.4239   10.1626 C.ar    1  UNL1        0.0310
     22 C          62.6933   79.2538   10.9921 C.ar    1  UNL1        0.1402
     23 F          62.4033   77.9362   10.3365 F       1  UNL1       -0.2042
     24 C          62.5443   79.4014   12.4775 C.ar    1  UNL1        0.0310
     25 C          62.8343   80.7190   13.1331 C.ar    1  UNL1        0.0222
     26 C          62.1365   90.9120   10.9916 C.3     1  UNL1        0.1475
     27 C          63.4735   91.4390   11.4212 C.2     1  UNL1        0.0732
     28 O          64.5197   91.7567   10.3942 O.co2   1  UNL1       -0.5472
     29 O          63.7644   91.6484   12.8778 O.co2   1  UNL1       -0.5472
@<TRIPOS>UNITY_ATOM_ATTR
28 1
charge -1
@<TRIPOS>BOND
     1    14    15    1
     2     1    15    1
     3     1     2    1
     4     2     3    1
     5     3     4    1
     6     4     5   ar
     7     5     6   ar
     8     6     7   ar
     9     7     8   ar
    10     8     9   ar
    11     9    10   ar
    12    10    11   ar
    13    11    12   ar
    14    12    26    1
    15    26    27    1
    16    27    28   ar
    17    27    29   ar
    18     5    13    1
    19    15    16    1
    20    16    17    2
    21    16    18    2
    22    16    19    1
    23    19    20   ar
    24    20    21   ar
    25    21    22   ar
    26    22    23    1
    27    22    24   ar
    28    24    25   ar
    29    13     1    1
    30    25    19   ar
    31    12     4   ar
    32    11     6   ar
@<TRIPOS>MOLECULE
*****
 29 32 0 0 0
SMALL
GASTEIGER

@<TRIPOS>ATOM
      1 C          63.3448   85.8842   13.3727 C.3     1  UNL1        0.0844
      2 C          62.5127   85.9669   12.1274 C.3     1  UNL1        0.0243
      3 C          62.3554   87.2783   11.4163 C.3     1  UNL1        0.0449
      4 C          63.0302   88.5068   11.9505 C.ar    1  UNL1        0.0336
      5 C          63.8623   88.4240   13.1958 C.ar    1  UNL1       -0.0076
      6 C          64.4036   89.7931   13.4835 C.ar    1  UNL1        0.0160
      7 C          65.2853   90.3138   14.5796 C.ar    1  UNL1        0.0218
      8 C          65.6694   91.7635   14.6082 C.ar    1  UNL1        0.0990
      9 N          65.1718   92.6924   13.5407 N.ar    1  UNL1       -0.2408
     10 C          64.2901   92.1716   12.4446 C.ar    1  UNL1        0.1160
     11 C          63.9060   90.7220   12.4160 C.ar    1  UNL1        0.0791
     12 N          63.0573   89.9270   11.4686 N.ar    1  UNL1       -0.3244
     13 C          64.0196   87.1127   13.9069 C.3     1  UNL1        0.0452
     14 C          63.8453   84.5479   15.5439 C.3     1  UNL1        0.1149
     15 N          63.5021   84.5728   14.0838 N.3     1  UNL1       -0.1551
     16 S          63.3163   83.2865   13.3349 S.O2    1  UNL1        0.0633
     17 O          64.5854   83.5439   12.5779 O.2     1  UNL1       -0.1528
     18 O          62.0472   83.0291   14.0920 O.2     1  UNL1       -0.1528
     19 C          63.1305   82.0002   12.5861 C.ar    1  UNL1        0.1223
     20 C          63.3449   81.9585   11.1021 C.ar    1  UNL1        0.0222
     21 C          63.1590   80.6721   10.3534 C.ar    1  UNL1        0.0310
     22 C          62.7587   79.4274   11.0885 C.ar    1  UNL1        0.1402
     23 F          62.5728   78.1410   10.3397 F       1  UNL1       -0.2042
     24 C          62.5442   79.4691   12.5725 C.ar    1  UNL1        0.0310
     25 C          62.7301   80.7555   13.3213 C.ar    1  UNL1        0.0222
     26 C          62.3582   90.4589   10.2527 C.3     1  UNL1        0.1475
     27 C          60.9382   90.0660    9.9719 C.2     1  UNL1        0.0732
     28 O          59.8186   90.6947   10.7475 O.co2   1  UNL1       -0.5472
     29 O          60.6375   89.0444    8.9155 O.co2   1  UNL1       -0.5472
@<TRIPOS>UNITY_ATOM_ATTR
28 1
charge -1
@<TRIPOS>BOND
     1    14    15    1
     2     1    15    1
     3     1     2    1
     4     2     3    1
     5     3     4    1
     6     4     5   ar
     7     5     6   ar
     8     6     7   ar
     9     7     8   ar
    10     8     9   ar
    11     9    10   ar
    12    10    11   ar
    13    11    12   ar
    14    12    26    1
    15    26    27    1
    16    27    28   ar
    17    27    29   ar
    18     5    13    1
    19    15    16    1
    20    16    17    2
    21    16    18    2
    22    16    19    1
    23    19    20   ar
    24    20    21   ar
    25    21    22   ar
    26    22    23    1
    27    22    24   ar
    28    24    25   ar
    29    13     1    1
    30    25    19   ar
    31    12     4   ar
    32    11     6   ar
@<TRIPOS>MOLECULE
*****
 29 32 0 0 0
SMALL
GASTEIGER

@<TRIPOS>ATOM
      1 C          62.7830   89.5847   12.3093 C.3     1  UNL1        0.0844
      2 C          63.1476   89.4885   13.7611 C.3     1  UNL1        0.0243
      3 C          64.1312   90.4539   14.3530 C.3     1  UNL1        0.0449
      4 C          64.7504   91.5156   13.4929 C.ar    1  UNL1        0.0336
      5 C          64.3858   91.6118   12.0411 C.ar    1  UNL1       -0.0076
      6 C          65.1533   92.7546   11.4452 C.ar    1  UNL1        0.0160
      7 C          65.1966   93.3184   10.0559 C.ar    1  UNL1        0.0218
      8 C          66.0788   94.4924    9.7502 C.ar    1  UNL1        0.0990
      9 N          66.9177   95.1025   10.8338 N.ar    1  UNL1       -0.2408
     10 C          66.8743   94.5386   12.2230 C.ar    1  UNL1        0.1160
     11 C          65.9921   93.3646   12.5287 C.ar    1  UNL1        0.0791
     12 N          65.7431   92.5989   13.7943 N.ar    1  UNL1       -0.3244
     13 C          63.4021   90.6463   11.4493 C.3     1  UNL1        0.0452
     14 C          60.3875   89.0532   11.4555 C.3     1  UNL1        0.1149
     15 N          61.7993   88.6192   11.7174 N.3     1  UNL1       -0.1551
     16 S          62.2274   87.2200   11.3875 S.O2    1  UNL1        0.0633
     17 O          63.2223   87.2599   12.5093 O.2     1  UNL1       -0.1528
     18 O          61.2324   87.1801   10.2656 O.2     1  UNL1       -0.1528
     19 C          62.6554   85.8208   11.0576 C.ar    1  UNL1        0.1223
     20 C          62.8855   84.8277   12.1579 C.ar    1  UNL1        0.0222
     21 C          63.3136   83.4285   11.8279 C.ar    1  UNL1        0.0310
     22 C          63.5115   83.0222   10.3975 C.ar    1  UNL1        0.1402
     23 F          63.9395   81.6230   10.0675 F       1  UNL1       -0.2042
     24 C          63.2813   84.0154    9.2972 C.ar    1  UNL1        0.0310
     25 C          62.8533   85.4147    9.6272 C.ar    1  UNL1        0.0222
     26 C          66.3758   92.8691   15.1272 C.3     1  UNL1        0.1475
     27 C          67.8135   92.5112   15.3614 C.2     1  UNL1        0.0732
     28 O          68.7914   92.5520   14.2247 O.co2   1  UNL1       -0.5472
     29 O          68.2734   92.1124   16.7324 O.co2   1  UNL1       -0.5472
@<TRIPOS>UNITY_ATOM_ATTR
28 1
charge -1
@<TRIPOS>BOND
     1    14    15    1
     2     1    15    1
     3     1     2    1
     4     2     3    1
     5     3     4    1
     6     4     5   ar
     7     5     6   ar
     8     6     7   ar
     9     7     8   ar
    10     8     9   ar
    11     9    10   ar
    12    10    11   ar
    13    11    12   ar
    14    12    26    1
    15    26    27    1
    16    27    28   ar
    17    27    29   ar
    18     5    13    1
    19    15    16    1
    20    16    17    2
    21    16    18    2
    22    16    19    1
    23    19    20   ar
    24    20    21   ar
    25    21    22   ar
    26    22    23    1
    27    22    24   ar
    28    24    25   ar
    29    13     1    1
    30    25    19   ar
    31    12     4   ar
    32    11     6   ar
@<TRIPOS>MOLECULE
*****
 29 32 0 0 0
SMALL
GASTEIGER

@<TRIPOS>ATOM
      1 C          63.8633   85.7890   13.9732 C.3     1  UNL1        0.0844
      2 C          64.4987   86.9344   14.7042 C.3     1  UNL1        0.0243
      3 C          64.3118   88.3373   14.2073 C.3     1  UNL1        0.0449
      4 C          63.4895   88.5948   12.9795 C.ar    1  UNL1        0.0336
      5 C          62.8541   87.4494   12.2485 C.ar    1  UNL1       -0.0076
      6 C          62.1036   88.0072   11.0756 C.ar    1  UNL1        0.0160
      7 C          61.2862   87.3507   10.0028 C.ar    1  UNL1        0.0218
      8 C          60.6404   88.1844    8.9362 C.ar    1  UNL1        0.0990
      9 N          60.8119   89.6745    8.9423 N.ar    1  UNL1       -0.2408
     10 C          61.6293   90.3310   10.0150 C.ar    1  UNL1        0.1160
     11 C          62.2752   89.4973   11.0817 C.ar    1  UNL1        0.0791
     12 N          63.1317   89.8605   12.2583 N.ar    1  UNL1       -0.3244
     13 C          63.0410   86.0465   12.7453 C.3     1  UNL1        0.0452
     14 C          64.5538   84.1443   15.8621 C.3     1  UNL1        0.1149
     15 N          64.0502   84.3860   14.4700 N.3     1  UNL1       -0.1551
     16 S          63.7334   83.2248   13.5747 S.O2    1  UNL1        0.0633
     17 O          64.9664   83.5095   12.7693 O.2     1  UNL1       -0.1528
     18 O          62.5004   82.9402   14.3802 O.2     1  UNL1       -0.1528
     19 C          63.4166   82.0638   12.6796 C.ar    1  UNL1        0.1223
     20 C          62.9057   80.7815   13.2668 C.ar    1  UNL1        0.0222
     21 C          62.5889   79.6205   12.3715 C.ar    1  UNL1        0.0310
     22 C          62.7830   79.7415   10.8890 C.ar    1  UNL1        0.1402
     23 F          62.4663   78.5804    9.9937 F       1  UNL1       -0.2042
     24 C          63.2940   81.0238   10.3018 C.ar    1  UNL1        0.0310
     25 C          63.6108   82.1849   11.1971 C.ar    1  UNL1        0.0222
     26 C          63.5559   91.2461   12.6458 C.3     1  UNL1        0.1475
     27 C          64.8123   91.8332   12.0744 C.2     1  UNL1        0.0732
     28 O          64.8629   92.2352   10.6301 O.co2   1  UNL1       -0.5472
     29 O          66.0182   92.0183   12.9470 O.co2   1  UNL1       -0.5472
@<TRIPOS>UNITY_ATOM_ATTR
28 1
charge -1
@<TRIPOS>BOND
     1    14    15    1
     2     1    15    1
     3     1     2    1
     4     2     3    1
     5     3     4    1
     6     4     5   ar
     7     5     6   ar
     8     6     7   ar
     9     7     8   ar
    10     8     9   ar
    11     9    10   ar
    12    10    11   ar
    13    11    12   ar
    14    12    26    1
    15    26    27    1
    16    27    28   ar
    17    27    29   ar
    18     5    13    1
    19    15    16    1
    20    16    17    2
    21    16    18    2
    22    16    19    1
    23    19    20   ar
    24    20    21   ar
    25    21    22   ar
    26    22    23    1
    27    22    24   ar
    28    24    25   ar
    29    13     1    1
    30    25    19   ar
    31    12     4   ar
    32    11     6   ar
@<TRIPOS>MOLECULE
*****
 29 32 0 0 0
SMALL
GASTEIGER

@<TRIPOS>ATOM
      1 C          64.0337   89.8091   13.0908 C.3     1  UNL1        0.0844
      2 C          63.1830   89.8671   11.8567 C.3     1  UNL1        0.0243
      3 C          62.5612   88.6143   11.3148 C.3     1  UNL1        0.0449
      4 C          62.7901   87.3033   12.0070 C.ar    1  UNL1        0.0336
      5 C          63.6408   87.2453   13.2411 C.ar    1  UNL1       -0.0076
      6 C          63.6879   85.8196   13.7051 C.ar    1  UNL1        0.0160
      7 C          64.3728   85.1646   14.8677 C.ar    1  UNL1        0.0218
      8 C          64.2361   83.6865   15.0830 C.ar    1  UNL1        0.0990
      9 N          63.4145   82.8634   14.1357 N.ar    1  UNL1       -0.2408
     10 C          62.7296   83.5184   12.9730 C.ar    1  UNL1        0.1160
     11 C          62.8663   84.9965   12.7577 C.ar    1  UNL1        0.0791
     12 N          62.3115   85.9135   11.7083 N.ar    1  UNL1       -0.3244
     13 C          64.2626   88.4982   13.7830 C.3     1  UNL1        0.0452
     14 C          64.6088   91.3463   15.1048 C.3     1  UNL1        0.1149
     15 N          64.6556   91.0620   13.6327 N.3     1  UNL1       -0.1551
     16 S          65.3241   92.0304   12.7025 S.O2    1  UNL1        0.0633
     17 O          63.9849   92.4355   12.1618 O.2     1  UNL1       -0.1528
     18 O          66.6634   91.6253   13.2434 O.2     1  UNL1       -0.1528
     19 C          65.9927   92.9988   11.7725 C.ar    1  UNL1        0.1223
     20 C          65.9105   94.4727   12.0384 C.ar    1  UNL1        0.0222
     21 C          66.5792   95.4411   11.1083 C.ar    1  UNL1        0.0310
     22 C          67.3301   94.9356    9.9121 C.ar    1  UNL1        0.1402
     23 F          67.9987   95.9039    8.9820 F       1  UNL1       -0.2042
     24 C          67.4122   93.4616    9.6462 C.ar    1  UNL1        0.0310
     25 C          66.7436   92.4932   10.5764 C.ar    1  UNL1        0.0222
     26 C          61.4323   85.5112   10.5614 C.3     1  UNL1        0.1475
     27 C          61.7844   85.9282    9.1643 C.2     1  UNL1        0.0732
     28 O          60.7828   86.6674    8.3273 O.co2   1  UNL1       -0.5472
     29 O          63.1380   85.6060    8.6040 O.co2   1  UNL1       -0.5472
@<TRIPOS>UNITY_ATOM_ATTR
28 1
charge -1
@<TRIPOS>BOND
     1    14    15    1
     2     1    15    1
     3     1     2    1
     4     2     3    1
     5     3     4    1
     6     4     5   ar
     7     5     6   ar
     8     6     7   ar
     9     7     8   ar
    10     8     9   ar
    11     9    10   ar
    12    10    11   ar
    13    11    12   ar
    14    12    26    1
    15    26    27    1
    16    27    28   ar
    17    27    29   ar
    18     5    13    1
    19    15    16    1
    20    16    17    2
    21    16    18    2
    22    16    19    1
    23    19    20   ar
    24    20    21   ar
    25    21    22   ar
    26    22    23    1
    27    22    24   ar
    28    24    25   ar
    29    13     1    1
    30    25    19   ar
    31    12     4   ar
    32    11     6   ar
