@<TRIPOS>MOLECULE
*****
 28 30 0 0 0
SMALL
GASTEIGER

@<TRIPOS>ATOM
      1 C          65.7468   91.6010   14.5774 C.ar    1  UNL1        0.0639
      2 C          65.2280   90.3199   15.1603 C.ar    1  UNL1        0.0054
      3 C          64.2929   89.4583   14.3645 C.ar    1  UNL1        0.0002
      4 C          63.8766   89.8778   12.9858 C.ar    1  UNL1        0.0006
      5 C          62.9416   89.0162   12.1900 C.ar    1  UNL1       -0.0016
      6 C          62.5254   89.4357   10.8113 C.ar    1  UNL1        0.0070
      7 C          63.0442   90.7168   10.2285 C.ar    1  UNL1       -0.0016
      8 C          63.9792   91.5783   11.0242 C.ar    1  UNL1        0.0006
      9 C          64.3955   91.1589   12.4029 C.ar    1  UNL1        0.0107
     10 C          65.3306   92.0204   13.1988 C.ar    1  UNL1        0.0620
     11 CL         65.8494   93.3015   12.6159 Cl      1  UNL1       -0.0821
     12 C          68.9772   93.6527   15.6287 C.3     1  UNL1        0.1109
     13 N          68.0421   92.7912   14.8330 N.am    1  UNL1       -0.2991
     14 C          66.6819   92.4625   15.3733 C.2     1  UNL1        0.2467
     15 O          66.2568   92.9954   16.7094 O.2     1  UNL1       -0.2701
     16 H          68.3210   92.4414   13.9560 H       1  UNL1        0.1498
     17 C          61.5902   88.5741   10.0155 C.3     1  UNL1        0.1410
     18 O          62.7404   88.1001    9.1774 O.3     1  UNL1       -0.3771
     19 H          63.5584   88.5232    9.4819 H       1  UNL1        0.2112
     20 C          60.4401   89.0482   10.8536 C.ar    1  UNL1        0.0825
     21 C          59.8649   90.4336   10.8587 C.ar    1  UNL1        0.1157
     22 N          58.7325   90.4617   11.8420 N.ar    1  UNL1       -0.2228
     23 C          58.6078   89.0938   12.4446 C.ar    1  UNL1        0.1749
     24 N          59.6632   88.2201   11.8337 N.ar    1  UNL1       -0.3361
     25 H          59.8186   87.2701   12.0399 H       1  UNL1        0.1673
     26 C          60.6552   87.7126    9.2196 C.3     1  UNL1        0.0340
     27 C          59.6790   88.3427    8.2709 C.3     1  UNL1        0.0031
     28 C          60.6964   86.2210    9.3724 C.3     1  UNL1        0.0031
@<TRIPOS>BOND
     1    12    13    1
     2    13    14   am
     3    14    15    2
     4    14     1    1
     5     1     2   ar
     6     2     3   ar
     7     3     4   ar
     8     4     5   ar
     9     5     6   ar
    10     6    17    1
    11    17    18    1
    12    17    20    1
    13    20    21   ar
    14    21    22   ar
    15    22    23   ar
    16    23    24   ar
    17    17    26    1
    18    26    27    1
    19    26    28    1
    20     6     7   ar
    21     7     8   ar
    22     8     9   ar
    23     9    10   ar
    24    10    11    1
    25    10     1   ar
    26     9     4   ar
    27    24    20   ar
    28    13    16    1
    29    18    19    1
    30    24    25    1
@<TRIPOS>MOLECULE
*****
 28 30 0 0 0
SMALL
GASTEIGER

@<TRIPOS>ATOM
      1 C          65.3459   91.0789   14.2055 C.ar    1  UNL1        0.0639
      2 C          64.7232   89.8013   14.6852 C.ar    1  UNL1        0.0054
      3 C          63.7110   89.0943   13.8336 C.ar    1  UNL1        0.0002
      4 C          63.3214   89.6648   12.5021 C.ar    1  UNL1        0.0006
      5 C          62.3091   88.9577   11.6504 C.ar    1  UNL1       -0.0016
      6 C          61.9195   89.5282   10.3190 C.ar    1  UNL1        0.0070
      7 C          62.5423   90.8057    9.8392 C.ar    1  UNL1       -0.0016
      8 C          63.5545   91.5128   10.6909 C.ar    1  UNL1        0.0006
      9 C          63.9441   90.9423   12.0223 C.ar    1  UNL1        0.0107
     10 C          64.9564   91.6493   12.8740 C.ar    1  UNL1        0.0620
     11 CL         65.5791   92.9269   12.3943 Cl      1  UNL1       -0.0821
     12 C          68.8343   92.3342   15.6217 C.3     1  UNL1        0.1109
     13 N          67.8220   91.6273   14.7701 N.am    1  UNL1       -0.2991
     14 C          66.3583   91.7859   15.0572 C.2     1  UNL1        0.2467
     15 O          65.9069   92.6515   16.1960 O.2     1  UNL1       -0.2701
     16 H          68.1182   91.0591   14.0226 H       1  UNL1        0.1498
     17 C          60.9072   88.8212    9.4672 C.3     1  UNL1        0.1410
     18 O          60.3498   90.1439    9.0319 O.3     1  UNL1       -0.3771
     19 H          60.8468   90.8601    9.4573 H       1  UNL1        0.2112
     20 C          61.4647   87.4985    9.9026 C.ar    1  UNL1        0.0825
     21 C          62.4277   86.6492    9.1271 C.ar    1  UNL1        0.1157
     22 N          62.7152   85.4186    9.9352 N.ar    1  UNL1       -0.2228
     23 C          61.9299   85.5072   11.2100 C.ar    1  UNL1        0.1749
     24 N          61.1569   86.7927   11.1900 N.ar    1  UNL1       -0.3361
     25 H          60.5537   87.1163   11.8975 H       1  UNL1        0.1673
     26 C          59.8949   88.1142    8.6155 C.3     1  UNL1        0.0340
     27 C          59.4740   88.7066    7.3033 C.3     1  UNL1        0.0031
     28 C          59.3036   86.8149    9.0760 C.3     1  UNL1        0.0031
@<TRIPOS>BOND
     1    12    13    1
     2    13    14   am
     3    14    15    2
     4    14     1    1
     5     1     2   ar
     6     2     3   ar
     7     3     4   ar
     8     4     5   ar
     9     5     6   ar
    10     6    17    1
    11    17    18    1
    12    17    20    1
    13    20    21   ar
    14    21    22   ar
    15    22    23   ar
    16    23    24   ar
    17    17    26    1
    18    26    27    1
    19    26    28    1
    20     6     7   ar
    21     7     8   ar
    22     8     9   ar
    23     9    10   ar
    24    10    11    1
    25    10     1   ar
    26     9     4   ar
    27    24    20   ar
    28    13    16    1
    29    18    19    1
    30    24    25    1
@<TRIPOS>MOLECULE
*****
 28 30 0 0 0
SMALL
GASTEIGER

@<TRIPOS>ATOM
      1 C          63.6692   89.5188   12.5665 C.ar    1  UNL1        0.0639
      2 C          62.8583   88.8975   11.4682 C.ar    1  UNL1        0.0054
      3 C          62.5120   87.4392   11.5246 C.ar    1  UNL1        0.0002
      4 C          62.9766   86.6021   12.6794 C.ar    1  UNL1        0.0006
      5 C          62.6303   85.1437   12.7357 C.ar    1  UNL1       -0.0016
      6 C          63.0949   84.3067   13.8905 C.ar    1  UNL1        0.0070
      7 C          63.9059   84.9280   14.9888 C.ar    1  UNL1       -0.0016
      8 C          64.2522   86.3863   14.9324 C.ar    1  UNL1        0.0006
      9 C          63.7876   87.2234   13.7777 C.ar    1  UNL1        0.0107
     10 C          64.1339   88.6818   13.7213 C.ar    1  UNL1        0.0620
     11 CL         64.9448   89.3031   14.8196 Cl      1  UNL1       -0.0821
     12 C          64.9527   93.0184   11.2041 C.3     1  UNL1        0.1109
     13 N          64.6064   91.5600   11.2606 N.am    1  UNL1       -0.2991
     14 C          64.0155   90.9773   12.5101 C.2     1  UNL1        0.2467
     15 O          63.7710   91.8529   13.7032 O.2     1  UNL1       -0.2701
     16 H          64.7669   90.9853   10.4775 H       1  UNL1        0.1498
     17 C          62.7486   82.8482   13.9469 C.3     1  UNL1        0.1410
     18 O          62.1637   83.0401   15.3147 O.3     1  UNL1       -0.3771
     19 H          62.2487   83.9706   15.5751 H       1  UNL1        0.2112
     20 C          63.3336   82.6564   12.5791 C.ar    1  UNL1        0.0825
     21 C          64.7334   82.9988   12.1627 C.ar    1  UNL1        0.1157
     22 N          64.8864   82.6425   10.7138 N.ar    1  UNL1       -0.2228
     23 C          63.5812   82.0798   10.2345 C.ar    1  UNL1        0.1749
     24 N          62.6215   82.0883   11.3873 N.ar    1  UNL1       -0.3361
     25 H          61.6881   81.7759   11.3656 H       1  UNL1        0.1673
     26 C          62.4023   81.3899   14.0034 C.3     1  UNL1        0.0340
     27 C          63.4894   80.3580   13.9429 C.3     1  UNL1        0.0031
     28 C          60.9690   80.9633   14.1203 C.3     1  UNL1        0.0031
@<TRIPOS>BOND
     1    12    13    1
     2    13    14   am
     3    14    15    2
     4    14     1    1
     5     1     2   ar
     6     2     3   ar
     7     3     4   ar
     8     4     5   ar
     9     5     6   ar
    10     6    17    1
    11    17    18    1
    12    17    20    1
    13    20    21   ar
    14    21    22   ar
    15    22    23   ar
    16    23    24   ar
    17    17    26    1
    18    26    27    1
    19    26    28    1
    20     6     7   ar
    21     7     8   ar
    22     8     9   ar
    23     9    10   ar
    24    10    11    1
    25    10     1   ar
    26     9     4   ar
    27    24    20   ar
    28    13    16    1
    29    18    19    1
    30    24    25    1
@<TRIPOS>MOLECULE
*****
 28 30 0 0 0
SMALL
GASTEIGER

@<TRIPOS>ATOM
      1 C          61.5697   88.3026   10.0961 C.ar    1  UNL1        0.0639
      2 C          61.6930   89.6912    9.5422 C.ar    1  UNL1        0.0054
      3 C          62.5316   90.7109   10.2542 C.ar    1  UNL1        0.0002
      4 C          63.2468   90.3421   11.5202 C.ar    1  UNL1        0.0006
      5 C          64.0853   91.3619   12.2322 C.ar    1  UNL1       -0.0016
      6 C          64.8005   90.9931   13.4980 C.ar    1  UNL1        0.0070
      7 C          64.6771   89.6045   14.0519 C.ar    1  UNL1       -0.0016
      8 C          63.8386   88.5848   13.3399 C.ar    1  UNL1        0.0006
      9 C          63.1234   88.9536   12.0741 C.ar    1  UNL1        0.0107
     10 C          62.2848   87.9338   11.3620 C.ar    1  UNL1        0.0620
     11 CL         62.1615   86.5453   11.9159 Cl      1  UNL1       -0.0821
     12 C          58.8013   86.7061    7.7430 C.3     1  UNL1        0.1109
     13 N          59.6399   87.7257    8.4550 N.am    1  UNL1       -0.2991
     14 C          60.7311   87.2829    9.3841 C.2     1  UNL1        0.2467
     15 O          60.9837   85.8204    9.6011 O.2     1  UNL1       -0.2701
     16 H          59.4741   88.6857    8.3126 H       1  UNL1        0.1498
     17 C          65.6390   92.0128   14.2101 C.3     1  UNL1        0.1410
     18 O          64.7614   91.8895   15.4202 O.3     1  UNL1       -0.3771
     19 H          64.0610   91.2412   15.2469 H       1  UNL1        0.2112
     20 C          66.5167   92.1362   13.0000 C.ar    1  UNL1        0.0825
     21 C          67.9267   91.6388   12.8790 C.ar    1  UNL1        0.1157
     22 N          68.4200   91.9737   11.5026 N.ar    1  UNL1       -0.2228
     23 C          67.3149   92.6781   10.7729 C.ar    1  UNL1        0.1749
     24 N          66.1385   92.7785   11.6983 N.ar    1  UNL1       -0.3361
     25 H          65.2707   93.1932   11.4882 H       1  UNL1        0.1673
     26 C          66.4775   93.0325   14.9222 C.3     1  UNL1        0.0340
     27 C          66.7961   94.3386   14.2567 C.3     1  UNL1        0.0031
     28 C          66.9975   92.7462   16.2997 C.3     1  UNL1        0.0031
@<TRIPOS>BOND
     1    12    13    1
     2    13    14   am
     3    14    15    2
     4    14     1    1
     5     1     2   ar
     6     2     3   ar
     7     3     4   ar
     8     4     5   ar
     9     5     6   ar
    10     6    17    1
    11    17    18    1
    12    17    20    1
    13    20    21   ar
    14    21    22   ar
    15    22    23   ar
    16    23    24   ar
    17    17    26    1
    18    26    27    1
    19    26    28    1
    20     6     7   ar
    21     7     8   ar
    22     8     9   ar
    23     9    10   ar
    24    10    11    1
    25    10     1   ar
    26     9     4   ar
    27    24    20   ar
    28    13    16    1
    29    18    19    1
    30    24    25    1
@<TRIPOS>MOLECULE
*****
 28 30 0 0 0
SMALL
GASTEIGER

@<TRIPOS>ATOM
      1 C          60.0936   88.0403    8.2435 C.ar    1  UNL1        0.0639
      2 C          60.0934   86.5459    8.1146 C.ar    1  UNL1        0.0054
      3 C          60.8354   85.7068    9.1122 C.ar    1  UNL1        0.0002
      4 C          61.5777   86.3623   10.2390 C.ar    1  UNL1        0.0006
      5 C          62.3197   85.5232   11.2366 C.ar    1  UNL1       -0.0016
      6 C          63.0620   86.1787   12.3633 C.ar    1  UNL1        0.0070
      7 C          63.0623   87.6731   12.4923 C.ar    1  UNL1       -0.0016
      8 C          62.3203   88.5121   11.4946 C.ar    1  UNL1        0.0006
      9 C          61.5780   87.8567   10.3680 C.ar    1  UNL1        0.0107
     10 C          60.8359   88.6957    9.3702 C.ar    1  UNL1        0.0620
     11 CL         60.8362   90.1902    9.4992 Cl      1  UNL1       -0.0821
     12 C          59.3303   90.7911    5.4867 C.3     1  UNL1        0.1109
     13 N          60.0722   89.9521    6.4844 N.am    1  UNL1       -0.2991
     14 C          59.3516   88.8793    7.2458 C.2     1  UNL1        0.2467
     15 O          57.8889   88.6456    7.0095 O.2     1  UNL1       -0.2701
     16 H          61.0323   90.1055    6.6395 H       1  UNL1        0.1498
     17 C          63.8041   85.3396   13.3611 C.3     1  UNL1        0.1410
     18 O          63.8953   86.5183   14.2843 O.3     1  UNL1       -0.3771
     19 H          63.4626   87.2839   13.8750 H       1  UNL1        0.2112
     20 C          63.7129   84.1610   12.4378 C.ar    1  UNL1        0.0825
     21 C          62.5792   83.1811   12.3683 C.ar    1  UNL1        0.1157
     22 N          62.9049   82.1697   11.3095 N.ar    1  UNL1       -0.2228
     23 C          64.2398   82.5245   10.7247 C.ar    1  UNL1        0.1749
     24 N          64.7392   83.7552   11.4220 N.ar    1  UNL1       -0.3361
     25 H          65.5910   84.2156   11.2441 H       1  UNL1        0.1673
     26 C          64.5461   84.5007   14.3588 C.3     1  UNL1        0.0340
     27 C          66.0093   84.7334   14.5939 C.3     1  UNL1        0.0031
     28 C          63.8251   83.4290   15.1215 C.3     1  UNL1        0.0031
@<TRIPOS>BOND
     1    12    13    1
     2    13    14   am
     3    14    15    2
     4    14     1    1
     5     1     2   ar
     6     2     3   ar
     7     3     4   ar
     8     4     5   ar
     9     5     6   ar
    10     6    17    1
    11    17    18    1
    12    17    20    1
    13    20    21   ar
    14    21    22   ar
    15    22    23   ar
    16    23    24   ar
    17    17    26    1
    18    26    27    1
    19    26    28    1
    20     6     7   ar
    21     7     8   ar
    22     8     9   ar
    23     9    10   ar
    24    10    11    1
    25    10     1   ar
    26     9     4   ar
    27    24    20   ar
    28    13    16    1
    29    18    19    1
    30    24    25    1
