@<TRIPOS>MOLECULE
*****
 29 32 0 0 0
SMALL
GASTEIGER

@<TRIPOS>ATOM
      1 N          61.6266   90.1037   11.9266 N.pl3   1  UNL1       -0.2926
      2 H          60.8390   90.6925   11.8805 H       1  UNL1        0.1541
      3 C          62.9124   90.6149   12.5057 C.ar    1  UNL1        0.0529
      4 C          63.3764   90.1293   13.8469 C.ar    1  UNL1        0.0163
      5 C          64.6622   90.6406   14.4259 C.ar    1  UNL1        0.0219
      6 C          65.4840   91.6374   13.6638 C.ar    1  UNL1        0.0995
      7 C          65.0201   92.1230   12.3226 C.ar    1  UNL1        0.1559
      8 C          63.7343   91.6117   11.7435 C.ar    1  UNL1        0.0530
      9 N          66.7699   92.1487   14.2428 N.ar    1  UNL1       -0.2835
     10 C          66.9058   93.0168   15.4585 C.ar    1  UNL1        0.1023
     11 C          68.3654   93.2862   15.6748 C.ar    1  UNL1        0.1196
     12 N          69.1316   92.5847   14.5929 N.ar    1  UNL1       -0.2220
     13 C          68.1455   91.8817   13.7078 C.ar    1  UNL1        0.1829
     14 O          65.8419   93.1198   11.5604 O.3     1  UNL1       -0.4699
     15 C          66.6913   92.6680   10.4095 C.3     1  UNL1        0.2525
     16 C          62.0298   86.3519   11.0171 C.ar    1  UNL1        0.0927
     17 C          60.7881   86.7037   10.2525 C.ar    1  UNL1        0.0573
     18 S          60.4860   88.1519   10.5001 S.2     1  UNL1       -0.0509
     19 C          61.5409   88.6952   11.4178 C.ar    1  UNL1        0.1635
     20 N          62.4950   87.5827   11.7373 N.ar    1  UNL1       -0.2239
     21 C          63.3727   84.4704    9.8311 C.ar    1  UNL1        0.1401
     22 C          64.0331   83.1242    9.8689 C.ar    1  UNL1        0.0375
     23 C          64.0111   82.3132   11.1306 C.ar    1  UNL1        0.0098
     24 C          63.3287   82.8484   12.3544 C.ar    1  UNL1        0.0348
     25 BR         63.3067   82.0374   13.6161 Br      1  UNL1       -0.0490
     26 C          62.6683   84.1946   12.3165 C.ar    1  UNL1        0.0112
     27 C          62.6902   85.0056   11.0549 C.ar    1  UNL1        0.0527
     28 C          62.4653   84.9405    7.4424 C.3     1  UNL1        0.2525
     29 O          63.3946   85.2814    8.5694 O.3     1  UNL1       -0.4714
@<TRIPOS>BOND
     1    28    29    1
     2    29    21    1
     3    21    22   ar
     4    22    23   ar
     5    23    24   ar
     6    24    25    1
     7    24    26   ar
     8    26    27   ar
     9    27    16    1
    10    16    17   ar
    11    17    18   ar
    12    18    19   ar
    13    19     1    1
    14     1     3    1
    15     3     4   ar
    16     4     5   ar
    17     5     6   ar
    18     6     9    1
    19     9    10   ar
    20    10    11   ar
    21    11    12   ar
    22    12    13   ar
    23     6     7   ar
    24     7    14    1
    25    14    15    1
    26     7     8   ar
    27    19    20   ar
    28    27    21   ar
    29    20    16   ar
    30     8     3   ar
    31    13     9   ar
    32     1     2    1
@<TRIPOS>MOLECULE
*****
 29 32 0 0 0
SMALL
GASTEIGER

@<TRIPOS>ATOM
      1 N          61.9036   89.7805   12.4717 N.pl3   1  UNL1       -0.2926
      2 H          61.3055   90.0704   13.1980 H       1  UNL1        0.1541
      3 C          62.9749   90.7023   11.9693 C.ar    1  UNL1        0.0529
      4 C          63.0213   91.0778   10.5177 C.ar    1  UNL1        0.0163
      5 C          64.0926   91.9996   10.0154 C.ar    1  UNL1        0.0219
      6 C          65.1175   92.5460   10.9645 C.ar    1  UNL1        0.0995
      7 C          65.0712   92.1706   12.4159 C.ar    1  UNL1        0.1559
      8 C          63.9999   91.2488   12.9184 C.ar    1  UNL1        0.0530
      9 N          66.1889   93.4679   10.4621 N.ar    1  UNL1       -0.2835
     10 C          66.1150   94.9655   10.4199 C.ar    1  UNL1        0.1023
     11 C          67.4027   95.4771    9.8455 C.ar    1  UNL1        0.1196
     12 N          68.2725   94.2959    9.5326 N.ar    1  UNL1       -0.2220
     13 C          67.5223   93.0540    9.9137 C.ar    1  UNL1        0.1829
     14 O          66.0962   92.7171   13.3651 O.3     1  UNL1       -0.4699
     15 C          67.3921   91.9898   13.5695 C.3     1  UNL1        0.2525
     16 C          62.1159   86.0884   11.2932 C.ar    1  UNL1        0.0927
     17 C          60.8782   86.5489   10.5820 C.ar    1  UNL1        0.0573
     18 S          60.6480   87.9880   10.9369 S.2     1  UNL1       -0.0509
     19 C          61.7435   88.4169   11.8675 C.ar    1  UNL1        0.1635
     20 N          62.6507   87.2429   12.0877 N.ar    1  UNL1       -0.2239
     21 C          63.3926   84.2558    9.9659 C.ar    1  UNL1        0.1401
     22 C          63.9905   82.8820    9.8951 C.ar    1  UNL1        0.0375
     23 C          63.9099   81.9669   11.0810 C.ar    1  UNL1        0.0098
     24 C          63.2313   82.4257   12.3375 C.ar    1  UNL1        0.0348
     25 BR         63.1507   81.5106   13.5234 Br      1  UNL1       -0.0490
     26 C          62.6333   83.7995   12.4083 C.ar    1  UNL1        0.0112
     27 C          62.7140   84.7145   11.2224 C.ar    1  UNL1        0.0527
     28 C          62.5730   84.9510    7.6005 C.3     1  UNL1        0.2525
     29 O          63.4732   85.1708    8.7800 O.3     1  UNL1       -0.4714
@<TRIPOS>BOND
     1    28    29    1
     2    29    21    1
     3    21    22   ar
     4    22    23   ar
     5    23    24   ar
     6    24    25    1
     7    24    26   ar
     8    26    27   ar
     9    27    16    1
    10    16    17   ar
    11    17    18   ar
    12    18    19   ar
    13    19     1    1
    14     1     3    1
    15     3     4   ar
    16     4     5   ar
    17     5     6   ar
    18     6     9    1
    19     9    10   ar
    20    10    11   ar
    21    11    12   ar
    22    12    13   ar
    23     6     7   ar
    24     7    14    1
    25    14    15    1
    26     7     8   ar
    27    19    20   ar
    28    27    21   ar
    29    20    16   ar
    30     8     3   ar
    31    13     9   ar
    32     1     2    1
@<TRIPOS>MOLECULE
*****
 29 32 0 0 0
SMALL
GASTEIGER

@<TRIPOS>ATOM
      1 N          61.9549   89.7937   11.4518 N.pl3   1  UNL1       -0.2926
      2 H          61.2244   90.3743   11.1380 H       1  UNL1        0.1541
      3 C          63.1500   90.3931   12.1318 C.ar    1  UNL1        0.0529
      4 C          63.5590   89.9112   13.4922 C.ar    1  UNL1        0.0163
      5 C          64.7540   90.5107   14.1721 C.ar    1  UNL1        0.0219
      6 C          65.5401   91.5920   13.4918 C.ar    1  UNL1        0.0995
      7 C          65.1311   92.0739   12.1316 C.ar    1  UNL1        0.1559
      8 C          63.9361   91.4744   11.4515 C.ar    1  UNL1        0.0530
      9 N          66.7353   92.1914   14.1719 N.ar    1  UNL1       -0.2835
     10 C          66.7046   93.1636   15.3139 C.ar    1  UNL1        0.1023
     11 C          68.1212   93.4969   15.6770 C.ar    1  UNL1        0.1196
     12 N          69.0275   92.7309   14.7596 N.ar    1  UNL1       -0.2220
     13 C          68.1709   91.9240   13.8293 C.ar    1  UNL1        0.1829
     14 O          65.9173   93.1552   11.4513 O.3     1  UNL1       -0.4699
     15 C          66.9298   92.8000   10.4032 C.3     1  UNL1        0.2525
     16 C          62.2579   85.9242   11.4782 C.ar    1  UNL1        0.0927
     17 C          61.2352   86.1275   10.3999 C.ar    1  UNL1        0.0573
     18 S          60.9972   87.6017   10.2588 S.2     1  UNL1       -0.0509
     19 C          61.8729   88.3097   11.2498 C.ar    1  UNL1        0.1635
     20 N          62.6520   87.2729   12.0034 N.ar    1  UNL1       -0.2239
     21 C          63.3228   84.4642   13.3448 C.ar    1  UNL1        0.1401
     22 C          63.8576   83.1441   13.8152 C.ar    1  UNL1        0.0375
     23 C          63.8623   81.9639   12.8894 C.ar    1  UNL1        0.0098
     24 C          63.3323   82.1038   11.4932 C.ar    1  UNL1        0.0348
     25 BR         63.3370   80.9236   10.5674 Br      1  UNL1       -0.0490
     26 C          62.7975   83.4239   11.0228 C.ar    1  UNL1        0.0112
     27 C          62.7928   84.6041   11.9486 C.ar    1  UNL1        0.0527
     28 C          64.5939   86.0945   14.9185 C.3     1  UNL1        0.2525
     29 O          63.3181   85.6444   14.2707 O.3     1  UNL1       -0.4714
@<TRIPOS>BOND
     1    28    29    1
     2    29    21    1
     3    21    22   ar
     4    22    23   ar
     5    23    24   ar
     6    24    25    1
     7    24    26   ar
     8    26    27   ar
     9    27    16    1
    10    16    17   ar
    11    17    18   ar
    12    18    19   ar
    13    19     1    1
    14     1     3    1
    15     3     4   ar
    16     4     5   ar
    17     5     6   ar
    18     6     9    1
    19     9    10   ar
    20    10    11   ar
    21    11    12   ar
    22    12    13   ar
    23     6     7   ar
    24     7    14    1
    25    14    15    1
    26     7     8   ar
    27    19    20   ar
    28    27    21   ar
    29    20    16   ar
    30     8     3   ar
    31    13     9   ar
    32     1     2    1
@<TRIPOS>MOLECULE
*****
 29 32 0 0 0
SMALL
GASTEIGER

@<TRIPOS>ATOM
      1 N          61.9444   89.8713   11.1361 N.pl3   1  UNL1       -0.2926
      2 H          61.2710   90.4408   10.6985 H       1  UNL1        0.1541
      3 C          63.0628   90.4966   11.9160 C.ar    1  UNL1        0.0529
      4 C          64.0775   91.3524   11.2174 C.ar    1  UNL1        0.0163
      5 C          65.1958   91.9776   11.9974 C.ar    1  UNL1        0.0219
      6 C          65.2995   91.7470   13.4759 C.ar    1  UNL1        0.0995
      7 C          64.2849   90.8912   14.1745 C.ar    1  UNL1        0.1559
      8 C          63.1665   90.2660   13.3945 C.ar    1  UNL1        0.0530
      9 N          66.4179   92.3722   14.2559 N.ar    1  UNL1       -0.2835
     10 C          67.5196   91.6377   14.9607 C.ar    1  UNL1        0.1023
     11 C          68.4134   92.6532   15.6084 C.ar    1  UNL1        0.1196
     12 N          67.8643   94.0154   15.3040 N.ar    1  UNL1       -0.2220
     13 C          66.6309   93.8418   14.4681 C.ar    1  UNL1        0.1829
     14 O          64.3886   90.6606   15.6531 O.3     1  UNL1       -0.4699
     15 C          63.3685   89.8125   16.3532 C.3     1  UNL1        0.2525
     16 C          62.2704   86.0091   11.3418 C.ar    1  UNL1        0.0927
     17 C          61.1493   86.1532   10.3557 C.ar    1  UNL1        0.0573
     18 S          60.8908   87.6175   10.1586 S.2     1  UNL1       -0.0509
     19 C          61.8520   88.3785   11.0229 C.ar    1  UNL1        0.1635
     20 N          62.7047   87.3844   11.7542 N.ar    1  UNL1       -0.2239
     21 C          63.5489   84.6617   13.1585 C.ar    1  UNL1        0.1401
     22 C          64.1331   83.3692   13.6465 C.ar    1  UNL1        0.0375
     23 C          64.0231   82.1317   12.8060 C.ar    1  UNL1        0.0098
     24 C          63.3289   82.1866   11.4775 C.ar    1  UNL1        0.0348
     25 BR         63.2189   80.9491   10.6370 Br      1  UNL1       -0.0490
     26 C          62.7447   83.4791   10.9894 C.ar    1  UNL1        0.0112
     27 C          62.8547   84.7166   11.8299 C.ar    1  UNL1        0.0527
     28 C          63.9247   85.7851   15.4707 C.3     1  UNL1        0.2525
     29 O          63.6589   85.8992   13.9989 O.3     1  UNL1       -0.4714
@<TRIPOS>BOND
     1    28    29    1
     2    29    21    1
     3    21    22   ar
     4    22    23   ar
     5    23    24   ar
     6    24    25    1
     7    24    26   ar
     8    26    27   ar
     9    27    16    1
    10    16    17   ar
    11    17    18   ar
    12    18    19   ar
    13    19     1    1
    14     1     3    1
    15     3     4   ar
    16     4     5   ar
    17     5     6   ar
    18     6     9    1
    19     9    10   ar
    20    10    11   ar
    21    11    12   ar
    22    12    13   ar
    23     6     7   ar
    24     7    14    1
    25    14    15    1
    26     7     8   ar
    27    19    20   ar
    28    27    21   ar
    29    20    16   ar
    30     8     3   ar
    31    13     9   ar
    32     1     2    1
@<TRIPOS>MOLECULE
*****
 29 32 0 0 0
SMALL
GASTEIGER

@<TRIPOS>ATOM
      1 N          62.0146   89.3372   12.2485 N.pl3   1  UNL1       -0.2926
      2 H          61.2784   89.5790   12.8557 H       1  UNL1        0.1541
      3 C          63.0093   90.3768   11.8245 C.ar    1  UNL1        0.0529
      4 C          63.0164   90.8752   10.4097 C.ar    1  UNL1        0.0163
      5 C          64.0111   91.9148    9.9859 C.ar    1  UNL1        0.0219
      6 C          64.9987   92.4561   10.9767 C.ar    1  UNL1        0.0995
      7 C          64.9915   91.9577   12.3914 C.ar    1  UNL1        0.1559
      8 C          63.9969   90.9181   12.8154 C.ar    1  UNL1        0.0530
      9 N          65.9934   93.4958   10.5528 N.ar    1  UNL1       -0.2835
     10 C          65.8545   94.9775   10.7406 C.ar    1  UNL1        0.1023
     11 C          67.0769   95.6336   10.1706 C.ar    1  UNL1        0.1196
     12 N          67.9714   94.5575    9.6304 N.ar    1  UNL1       -0.2220
     13 C          67.3018   93.2362    9.8667 C.ar    1  UNL1        0.1829
     14 O          65.9792   92.4990   13.3823 O.3     1  UNL1       -0.4699
     15 C          67.3637   91.9258   13.4507 C.3     1  UNL1        0.2525
     16 C          62.4771   85.5265   11.6739 C.ar    1  UNL1        0.0927
     17 C          62.1974   85.9983   10.2777 C.ar    1  UNL1        0.0573
     18 S          61.9901   87.4832   10.3230 S.2     1  UNL1       -0.0509
     19 C          62.1417   87.9292   11.7472 C.ar    1  UNL1        0.1635
     20 N          62.4427   86.7198   12.5820 N.ar    1  UNL1       -0.2239
     21 C          62.9093   83.7725   13.5411 C.ar    1  UNL1        0.1401
     22 C          63.1766   82.3561   13.9562 C.ar    1  UNL1        0.0375
     23 C          63.2787   81.2772   12.9191 C.ar    1  UNL1        0.0098
     24 C          63.1137   81.6147   11.4670 C.ar    1  UNL1        0.0348
     25 BR         63.2159   80.5358   10.4299 Br      1  UNL1       -0.0490
     26 C          62.8465   83.0311   11.0519 C.ar    1  UNL1        0.0112
     27 C          62.7443   84.1100   12.0890 C.ar    1  UNL1        0.0527
     28 C          63.9582   85.1136   15.5036 C.3     1  UNL1        0.2525
     29 O          62.8072   84.8514   14.5782 O.3     1  UNL1       -0.4714
@<TRIPOS>BOND
     1    28    29    1
     2    29    21    1
     3    21    22   ar
     4    22    23   ar
     5    23    24   ar
     6    24    25    1
     7    24    26   ar
     8    26    27   ar
     9    27    16    1
    10    16    17   ar
    11    17    18   ar
    12    18    19   ar
    13    19     1    1
    14     1     3    1
    15     3     4   ar
    16     4     5   ar
    17     5     6   ar
    18     6     9    1
    19     9    10   ar
    20    10    11   ar
    21    11    12   ar
    22    12    13   ar
    23     6     7   ar
    24     7    14    1
    25    14    15    1
    26     7     8   ar
    27    19    20   ar
    28    27    21   ar
    29    20    16   ar
    30     8     3   ar
    31    13     9   ar
    32     1     2    1
@<TRIPOS>MOLECULE
*****
 29 32 0 0 0
SMALL
GASTEIGER

@<TRIPOS>ATOM
      1 N          63.0977   89.8381   13.7196 N.pl3   1  UNL1       -0.2926
      2 H          62.3057   90.1746   14.1979 H       1  UNL1        0.1541
      3 C          63.9299   90.7747   12.8949 C.ar    1  UNL1        0.0529
      4 C          63.5686   91.0357   11.4626 C.ar    1  UNL1        0.0163
      5 C          64.4008   91.9722   10.6379 C.ar    1  UNL1        0.0219
      6 C          65.5943   92.6479   11.2454 C.ar    1  UNL1        0.0995
      7 C          65.9555   92.3870   12.6776 C.ar    1  UNL1        0.1559
      8 C          65.1234   91.4504   13.5024 C.ar    1  UNL1        0.0530
      9 N          66.4265   93.5845   10.4207 N.ar    1  UNL1       -0.2835
     10 C          66.1931   95.0568   10.2535 C.ar    1  UNL1        0.1023
     11 C          67.2606   95.5954    9.3478 C.ar    1  UNL1        0.1196
     12 N          68.1538   94.4561    8.9552 N.ar    1  UNL1       -0.2220
     13 C          67.6383   93.2133    9.6183 C.ar    1  UNL1        0.1829
     14 O          67.1491   93.0627   13.2851 O.3     1  UNL1       -0.4699
     15 C          67.0908   93.5588   14.6995 C.3     1  UNL1        0.2525
     16 C          63.6127   86.0067   13.3724 C.ar    1  UNL1        0.0927
     17 C          64.4845   86.3104   14.5546 C.ar    1  UNL1        0.0573
     18 S          64.3977   87.7826   14.8287 S.2     1  UNL1       -0.0509
     19 C          63.4722   88.3888   13.8157 C.ar    1  UNL1        0.1635
     20 N          62.9871   87.2913   12.9157 N.ar    1  UNL1       -0.2239
     21 C          62.9488   84.5446   11.3300 C.ar    1  UNL1        0.1401
     22 C          62.7394   83.1936   10.7128 C.ar    1  UNL1        0.0375
     23 C          62.9844   81.9538   11.5207 C.ar    1  UNL1        0.0098
     24 C          63.4389   82.0649   12.9459 C.ar    1  UNL1        0.0348
     25 BR         63.6839   80.8251   13.7538 Br      1  UNL1       -0.0490
     26 C          63.6483   83.4159   13.5631 C.ar    1  UNL1        0.0112
     27 C          63.4033   84.6557   12.7551 C.ar    1  UNL1        0.0527
     28 C          61.3390   86.0577    9.9629 C.3     1  UNL1        0.2525
     29 O          62.7038   85.7844   10.5220 O.3     1  UNL1       -0.4714
@<TRIPOS>BOND
     1    28    29    1
     2    29    21    1
     3    21    22   ar
     4    22    23   ar
     5    23    24   ar
     6    24    25    1
     7    24    26   ar
     8    26    27   ar
     9    27    16    1
    10    16    17   ar
    11    17    18   ar
    12    18    19   ar
    13    19     1    1
    14     1     3    1
    15     3     4   ar
    16     4     5   ar
    17     5     6   ar
    18     6     9    1
    19     9    10   ar
    20    10    11   ar
    21    11    12   ar
    22    12    13   ar
    23     6     7   ar
    24     7    14    1
    25    14    15    1
    26     7     8   ar
    27    19    20   ar
    28    27    21   ar
    29    20    16   ar
    30     8     3   ar
    31    13     9   ar
    32     1     2    1
@<TRIPOS>MOLECULE
*****
 29 32 0 0 0
SMALL
GASTEIGER

@<TRIPOS>ATOM
      1 N          64.1681   90.1773   15.4002 N.pl3   1  UNL1       -0.2926
      2 H          63.8993   90.6718   16.2079 H       1  UNL1        0.1541
      3 C          64.8492   90.8953   14.2731 C.ar    1  UNL1        0.0529
      4 C          66.2553   91.3904   14.4400 C.ar    1  UNL1        0.0163
      5 C          66.9363   92.1083   13.3128 C.ar    1  UNL1        0.0219
      6 C          66.2113   92.3313   12.0187 C.ar    1  UNL1        0.0995
      7 C          64.8053   91.8363   11.8518 C.ar    1  UNL1        0.1559
      8 C          64.1242   91.1182   12.9790 C.ar    1  UNL1        0.0530
      9 N          66.8925   93.0493   10.8915 N.ar    1  UNL1       -0.2835
     10 C          66.7315   94.4999   10.5448 C.ar    1  UNL1        0.1023
     11 C          67.5936   94.7898    9.3522 C.ar    1  UNL1        0.1196
     12 N          68.2874   93.5186    8.9616 N.ar    1  UNL1       -0.2220
     13 C          67.8541   92.4429    9.9130 C.ar    1  UNL1        0.1829
     14 O          64.0804   92.0592   10.5576 O.3     1  UNL1       -0.4699
     15 C          63.0022   91.1087   10.1286 C.3     1  UNL1        0.2525
     16 C          63.5600   86.4785   14.3929 C.ar    1  UNL1        0.0927
     17 C          63.3971   86.4038   15.8821 C.ar    1  UNL1        0.0573
     18 S          63.6051   87.7803   16.4407 S.2     1  UNL1       -0.0509
     19 C          63.8965   88.7057   15.2967 C.ar    1  UNL1        0.1635
     20 N          63.8686   87.9011   14.0311 N.ar    1  UNL1       -0.2239
     21 C          62.8492   85.5538   12.0713 C.ar    1  UNL1        0.1401
     22 C          62.7253   84.4072   11.1122 C.ar    1  UNL1        0.0375
     23 C          63.1882   83.0386   11.5156 C.ar    1  UNL1        0.0098
     24 C          63.7750   82.8166   12.8780 C.ar    1  UNL1        0.0348
     25 BR         64.2379   81.4480   13.2814 Br      1  UNL1       -0.0490
     26 C          63.8989   83.9632   13.8371 C.ar    1  UNL1        0.0112
     27 C          63.4360   85.3318   13.4337 C.ar    1  UNL1        0.0527
     28 C          61.1017   87.0868   10.9111 C.3     1  UNL1        0.2525
     29 O          62.3863   86.9224   11.6679 O.3     1  UNL1       -0.4714
@<TRIPOS>BOND
     1    28    29    1
     2    29    21    1
     3    21    22   ar
     4    22    23   ar
     5    23    24   ar
     6    24    25    1
     7    24    26   ar
     8    26    27   ar
     9    27    16    1
    10    16    17   ar
    11    17    18   ar
    12    18    19   ar
    13    19     1    1
    14     1     3    1
    15     3     4   ar
    16     4     5   ar
    17     5     6   ar
    18     6     9    1
    19     9    10   ar
    20    10    11   ar
    21    11    12   ar
    22    12    13   ar
    23     6     7   ar
    24     7    14    1
    25    14    15    1
    26     7     8   ar
    27    19    20   ar
    28    27    21   ar
    29    20    16   ar
    30     8     3   ar
    31    13     9   ar
    32     1     2    1
@<TRIPOS>MOLECULE
*****
 29 32 0 0 0
SMALL
GASTEIGER

@<TRIPOS>ATOM
      1 N          63.0003   90.1062   13.5625 N.pl3   1  UNL1       -0.2926
      2 H          62.1643   90.4398   13.9612 H       1  UNL1        0.1541
      3 C          63.8555   91.0220   12.7378 C.ar    1  UNL1        0.0529
      4 C          63.5700   91.2009   11.2762 C.ar    1  UNL1        0.0163
      5 C          64.4252   92.1166   10.4516 C.ar    1  UNL1        0.0219
      6 C          65.5659   92.8534   11.0886 C.ar    1  UNL1        0.0995
      7 C          65.8514   92.6745   12.5502 C.ar    1  UNL1        0.1559
      8 C          64.9962   91.7588   13.3748 C.ar    1  UNL1        0.0530
      9 N          66.4211   93.7692   10.2639 N.ar    1  UNL1       -0.2835
     10 C          67.5630   93.3547    9.3840 C.ar    1  UNL1        0.1023
     11 C          68.1322   94.5896    8.7507 C.ar    1  UNL1        0.1196
     12 N          67.3421   95.7673    9.2392 N.ar    1  UNL1       -0.2220
     13 C          66.2846   95.2603   10.1744 C.ar    1  UNL1        0.1829
     14 O          66.9922   93.4114   13.1872 O.3     1  UNL1       -0.4699
     15 C          67.0332   93.5872   14.6763 C.3     1  UNL1        0.2525
     16 C          63.5734   86.2675   13.5920 C.ar    1  UNL1        0.0927
     17 C          64.5534   86.7148   14.6357 C.ar    1  UNL1        0.0573
     18 S          64.4580   88.2073   14.7518 S.2     1  UNL1       -0.0509
     19 C          63.4190   88.6823   13.7797 C.ar    1  UNL1        0.1635
     20 N          62.8723   87.4835   13.0629 N.ar    1  UNL1       -0.2239
     21 C          62.4692   83.9477   13.9787 C.ar    1  UNL1        0.1401
     22 C          62.2319   82.5328   13.5408 C.ar    1  UNL1        0.0375
     23 C          62.8614   82.0228   12.2784 C.ar    1  UNL1        0.0098
     24 C          63.7282   82.9276   11.4539 C.ar    1  UNL1        0.0348
     25 BR         64.3577   82.4176   10.1915 Br      1  UNL1       -0.0490
     26 C          63.9655   84.3425   11.8917 C.ar    1  UNL1        0.0112
     27 C          63.3360   84.8525   13.1541 C.ar    1  UNL1        0.0527
     28 C          62.6706   84.6260   16.4785 C.3     1  UNL1        0.2525
     29 O          61.8398   84.4577   15.2410 O.3     1  UNL1       -0.4714
@<TRIPOS>BOND
     1    28    29    1
     2    29    21    1
     3    21    22   ar
     4    22    23   ar
     5    23    24   ar
     6    24    25    1
     7    24    26   ar
     8    26    27   ar
     9    27    16    1
    10    16    17   ar
    11    17    18   ar
    12    18    19   ar
    13    19     1    1
    14     1     3    1
    15     3     4   ar
    16     4     5   ar
    17     5     6   ar
    18     6     9    1
    19     9    10   ar
    20    10    11   ar
    21    11    12   ar
    22    12    13   ar
    23     6     7   ar
    24     7    14    1
    25    14    15    1
    26     7     8   ar
    27    19    20   ar
    28    27    21   ar
    29    20    16   ar
    30     8     3   ar
    31    13     9   ar
    32     1     2    1
@<TRIPOS>MOLECULE
*****
 29 32 0 0 0
SMALL
GASTEIGER

@<TRIPOS>ATOM
      1 N          62.0554   89.2209   11.0466 N.pl3   1  UNL1       -0.2926
      2 H          61.2547   89.5345   10.5672 H       1  UNL1        0.1541
      3 C          62.2316   87.7598   11.3367 C.ar    1  UNL1        0.0529
      4 C          61.5650   86.7364   10.4658 C.ar    1  UNL1        0.0163
      5 C          61.7412   85.2754   10.7561 C.ar    1  UNL1        0.0219
      6 C          62.5839   84.8377   11.9172 C.ar    1  UNL1        0.0995
      7 C          63.2505   85.8610   12.7880 C.ar    1  UNL1        0.1559
      8 C          63.0743   87.3221   12.4978 C.ar    1  UNL1        0.0530
      9 N          62.7601   83.3766   12.2074 N.ar    1  UNL1       -0.2835
     10 C          62.4149   82.6851   13.4930 C.ar    1  UNL1        0.1023
     11 C          62.7539   81.2317   13.3431 C.ar    1  UNL1        0.1196
     12 N          63.3086   81.0248   11.9649 N.ar    1  UNL1       -0.2220
     13 C          63.3125   82.3504   11.2630 C.ar    1  UNL1        0.1829
     14 O          64.0932   85.4232   13.9492 O.3     1  UNL1       -0.4699
     15 C          64.5827   86.4338   14.9437 C.3     1  UNL1        0.2525
     16 C          64.7420   91.3790   12.8327 C.ar    1  UNL1        0.0927
     17 C          64.6688   92.0553   11.4958 C.ar    1  UNL1        0.0573
     18 S          63.6535   91.3292   10.6640 S.2     1  UNL1       -0.0509
     19 C          63.0992   90.2041   11.4868 C.ar    1  UNL1        0.1635
     20 N          63.7719   90.2349   12.8271 N.ar    1  UNL1       -0.2239
     21 C          65.0671   91.8779   15.3616 C.ar    1  UNL1        0.1401
     22 C          65.9546   92.2758   16.5035 C.ar    1  UNL1        0.0375
     23 C          67.4043   92.5727   16.2586 C.ar    1  UNL1        0.0098
     24 C          67.9667   92.4717   14.8717 C.ar    1  UNL1        0.0348
     25 BR         69.4164   92.7687   14.6267 Br      1  UNL1       -0.0490
     26 C          67.0792   92.0738   13.7297 C.ar    1  UNL1        0.0112
     27 C          65.6294   91.7769   13.9747 C.ar    1  UNL1        0.0527
     28 C          63.2189   90.3167   16.3084 C.3     1  UNL1        0.2525
     29 O          63.6173   91.5810   15.6066 O.3     1  UNL1       -0.4714
@<TRIPOS>BOND
     1    28    29    1
     2    29    21    1
     3    21    22   ar
     4    22    23   ar
     5    23    24   ar
     6    24    25    1
     7    24    26   ar
     8    26    27   ar
     9    27    16    1
    10    16    17   ar
    11    17    18   ar
    12    18    19   ar
    13    19     1    1
    14     1     3    1
    15     3     4   ar
    16     4     5   ar
    17     5     6   ar
    18     6     9    1
    19     9    10   ar
    20    10    11   ar
    21    11    12   ar
    22    12    13   ar
    23     6     7   ar
    24     7    14    1
    25    14    15    1
    26     7     8   ar
    27    19    20   ar
    28    27    21   ar
    29    20    16   ar
    30     8     3   ar
    31    13     9   ar
    32     1     2    1
