@<TRIPOS>MOLECULE
*****
 30 33 0 0 0
SMALL
GASTEIGER

@<TRIPOS>ATOM
      1 C          62.4028   89.0337   10.7230 C.ar    1  UNL1        0.0054
      2 C          62.7748   90.3180   10.0432 C.ar    1  UNL1        0.0003
      3 C          63.6440   91.3158   10.7494 C.ar    1  UNL1        0.0027
      4 C          64.1412   91.0294   12.1353 C.ar    1  UNL1        0.0312
      5 C          65.0104   92.0274   12.8415 C.ar    1  UNL1        0.0556
      6 C          65.5075   91.7410   14.2274 C.ar    1  UNL1        0.0856
      7 C          65.1354   90.4566   14.9072 C.ar    1  UNL1        0.1045
      8 N          64.2662   89.4588   14.2010 N.ar    1  UNL1       -0.2436
      9 C          63.7691   89.7452   12.8151 C.ar    1  UNL1        0.0825
     10 C          62.8999   88.7473   12.1089 C.ar    1  UNL1        0.0193
     11 C          60.0698   89.7219    8.5474 C.3     1  UNL1        0.0556
     12 C          60.4612   88.3521    9.0168 C.ar    1  UNL1        0.1006
     13 N          59.8490   87.0581    8.5687 N.ar    1  UNL1       -0.0817
     14 O          60.5430   85.9420    9.2918 O.2     1  UNL1       -0.3581
     15 C          61.5841   86.5462   10.1867 C.ar    1  UNL1        0.1544
     16 C          62.5127   85.7932   11.0926 C.3     1  UNL1        0.0754
     17 C          61.5336   88.0357   10.0168 C.ar    1  UNL1        0.0497
     18 C          66.3767   92.7389   14.9336 C.2     1  UNL1        0.2455
     19 N          66.1157   93.0759   16.3718 N.am    1  UNL1       -0.3252
     20 O          67.5069   93.3998   14.2016 O.2     1  UNL1       -0.2703
     21 H          65.3739   92.6421   16.8522 H       1  UNL1        0.1453
     22 H          66.6862   93.7308   16.8353 H       1  UNL1        0.1453
     23 N          65.3824   93.3117   12.1617 N.pl3   1  UNL1       -0.3123
     24 H          64.9717   94.1585   12.4505 H       1  UNL1        0.1522
     25 C          66.3804   93.3058   11.0418 C.ar    1  UNL1        0.0483
     26 C          66.4177   94.4431   10.0646 C.ar    1  UNL1        0.0146
     27 C          67.4156   94.4372    8.9447 C.ar    1  UNL1        0.0013
     28 C          68.3762   93.2940    8.8021 C.ar    1  UNL1        0.0001
     29 C          68.3389   92.1567    9.7794 C.ar    1  UNL1        0.0013
     30 C          67.3410   92.1625   10.8993 C.ar    1  UNL1        0.0146
@<TRIPOS>BOND
     1    11    12    1
     2    12    13   ar
     3    13    14   ar
     4    14    15   ar
     5    15    16    1
     6    15    17   ar
     7    17     1    1
     8     1     2   ar
     9     2     3   ar
    10     3     4   ar
    11     4     5   ar
    12     5    23    1
    13    23    25    1
    14    25    26   ar
    15    26    27   ar
    16    27    28   ar
    17    28    29   ar
    18    29    30   ar
    19     5     6   ar
    20     6    18    1
    21    18    19   am
    22    18    20    2
    23     6     7   ar
    24     7     8   ar
    25     8     9   ar
    26     9    10   ar
    27    17    12   ar
    28    10     1   ar
    29     9     4   ar
    30    30    25   ar
    31    23    24    1
    32    19    21    1
    33    19    22    1
@<TRIPOS>MOLECULE
*****
 30 33 0 0 0
SMALL
GASTEIGER

@<TRIPOS>ATOM
      1 C          62.3107   89.0113   10.5470 C.ar    1  UNL1        0.0054
      2 C          62.7193   90.3146    9.9270 C.ar    1  UNL1        0.0003
      3 C          63.5787   91.2740   10.6957 C.ar    1  UNL1        0.0027
      4 C          64.0294   90.9302   12.0845 C.ar    1  UNL1        0.0312
      5 C          64.8889   91.8897   12.8532 C.ar    1  UNL1        0.0556
      6 C          65.3396   91.5458   14.2419 C.ar    1  UNL1        0.0856
      7 C          64.9310   90.2424   14.8619 C.ar    1  UNL1        0.1045
      8 N          64.0716   89.2830   14.0932 N.ar    1  UNL1       -0.2436
      9 C          63.6208   89.6269   12.7045 C.ar    1  UNL1        0.0825
     10 C          62.7615   88.6675   11.9358 C.ar    1  UNL1        0.0193
     11 C          62.5142   85.7556   10.6400 C.3     1  UNL1        0.0556
     12 C          61.5448   86.5554    9.8211 C.ar    1  UNL1        0.1006
     13 N          60.4988   85.9991    8.9011 N.ar    1  UNL1       -0.0817
     14 O          59.7588   87.1518    8.2897 O.2     1  UNL1       -0.3581
     15 C          60.3474   88.4204    8.8319 C.ar    1  UNL1        0.1544
     16 C          59.9092   89.8131    8.4880 C.3     1  UNL1        0.0754
     17 C          61.4513   88.0518    9.7783 C.ar    1  UNL1        0.0497
     18 C          66.1990   92.5052   15.0106 C.2     1  UNL1        0.2455
     19 N          65.8468   92.8601   16.4249 N.am    1  UNL1       -0.3252
     20 O          67.4106   93.1097   14.3652 O.2     1  UNL1       -0.2703
     21 H          65.0516   92.4633   16.8486 H       1  UNL1        0.1453
     22 H          66.4109   93.4898   16.9295 H       1  UNL1        0.1453
     23 N          65.2975   93.1929   12.2332 N.pl3   1  UNL1       -0.3123
     24 H          64.9009   94.0356   12.5523 H       1  UNL1        0.1522
     25 C          66.3102   93.2123   11.1269 C.ar    1  UNL1        0.0483
     26 C          67.3149   92.1046   11.0104 C.ar    1  UNL1        0.0146
     27 C          68.3277   92.1240    9.9041 C.ar    1  UNL1        0.0013
     28 C          68.3358   93.2511    8.9143 C.ar    1  UNL1        0.0001
     29 C          67.3311   94.3588    9.0308 C.ar    1  UNL1        0.0013
     30 C          66.3183   94.3394   10.1371 C.ar    1  UNL1        0.0146
@<TRIPOS>BOND
     1    11    12    1
     2    12    13   ar
     3    13    14   ar
     4    14    15   ar
     5    15    16    1
     6    15    17   ar
     7    17     1    1
     8     1     2   ar
     9     2     3   ar
    10     3     4   ar
    11     4     5   ar
    12     5    23    1
    13    23    25    1
    14    25    26   ar
    15    26    27   ar
    16    27    28   ar
    17    28    29   ar
    18    29    30   ar
    19     5     6   ar
    20     6    18    1
    21    18    19   am
    22    18    20    2
    23     6     7   ar
    24     7     8   ar
    25     8     9   ar
    26     9    10   ar
    27    17    12   ar
    28    10     1   ar
    29     9     4   ar
    30    30    25   ar
    31    23    24    1
    32    19    21    1
    33    19    22    1
@<TRIPOS>MOLECULE
*****
 30 33 0 0 0
SMALL
GASTEIGER

@<TRIPOS>ATOM
      1 C          62.4372   90.0065   11.2340 C.ar    1  UNL1        0.0054
      2 C          63.4085   90.6746   10.3066 C.ar    1  UNL1        0.0003
      3 C          64.5914   91.4105   10.8626 C.ar    1  UNL1        0.0027
      4 C          64.8030   91.4781   12.3460 C.ar    1  UNL1        0.0312
      5 C          65.9860   92.2140   12.9021 C.ar    1  UNL1        0.0556
      6 C          66.1976   92.2816   14.3855 C.ar    1  UNL1        0.0856
      7 C          65.2263   91.6134   15.3130 C.ar    1  UNL1        0.1045
      8 N          64.0434   90.8776   14.7569 N.ar    1  UNL1       -0.2436
      9 C          63.8317   90.8099   13.2735 C.ar    1  UNL1        0.0825
     10 C          62.6488   90.0741   12.7174 C.ar    1  UNL1        0.0193
     11 C          62.5394   87.2520    9.4869 C.3     1  UNL1        0.0556
     12 C          61.3012   88.0045    9.8749 C.ar    1  UNL1        0.1006
     13 N          59.8926   87.6231    9.5280 N.ar    1  UNL1       -0.0817
     14 O          58.9750   88.6534   10.1167 O.2     1  UNL1       -0.3581
     15 C          59.8165   89.6716   10.8273 C.ar    1  UNL1        0.1544
     16 C          59.3094   90.8789   11.5589 C.3     1  UNL1        0.0754
     17 C          61.2542   89.2706   10.6779 C.ar    1  UNL1        0.0497
     18 C          67.3806   93.0175   14.9416 C.2     1  UNL1        0.2455
     19 N          67.2386   93.8256   16.1973 N.am    1  UNL1       -0.3252
     20 O          68.7054   92.9452   14.2419 O.2     1  UNL1       -0.2703
     21 H          66.3691   93.8731   16.6565 H       1  UNL1        0.1453
     22 H          68.0150   94.3086   16.5623 H       1  UNL1        0.1453
     23 N          66.9573   92.8822   11.9747 N.pl3   1  UNL1       -0.3123
     24 H          67.8230   92.4564   11.7784 H       1  UNL1        0.1522
     25 C          66.6096   94.1990   11.3462 C.ar    1  UNL1        0.0483
     26 C          66.5993   94.3379    9.8528 C.ar    1  UNL1        0.0146
     27 C          66.2516   95.6548    9.2243 C.ar    1  UNL1        0.0013
     28 C          65.9142   96.8328   10.0894 C.ar    1  UNL1        0.0001
     29 C          65.9244   96.6940   11.5830 C.ar    1  UNL1        0.0013
     30 C          66.2721   95.3771   12.2114 C.ar    1  UNL1        0.0146
@<TRIPOS>BOND
     1    11    12    1
     2    12    13   ar
     3    13    14   ar
     4    14    15   ar
     5    15    16    1
     6    15    17   ar
     7    17     1    1
     8     1     2   ar
     9     2     3   ar
    10     3     4   ar
    11     4     5   ar
    12     5    23    1
    13    23    25    1
    14    25    26   ar
    15    26    27   ar
    16    27    28   ar
    17    28    29   ar
    18    29    30   ar
    19     5     6   ar
    20     6    18    1
    21    18    19   am
    22    18    20    2
    23     6     7   ar
    24     7     8   ar
    25     8     9   ar
    26     9    10   ar
    27    17    12   ar
    28    10     1   ar
    29     9     4   ar
    30    30    25   ar
    31    23    24    1
    32    19    21    1
    33    19    22    1
@<TRIPOS>MOLECULE
*****
 30 33 0 0 0
SMALL
GASTEIGER

@<TRIPOS>ATOM
      1 C          61.8576   87.1202    9.9679 C.ar    1  UNL1        0.0054
      2 C          62.5510   86.2573   10.9801 C.ar    1  UNL1        0.0003
      3 C          63.2619   86.8869   12.1412 C.ar    1  UNL1        0.0027
      4 C          63.2793   88.3794   12.2901 C.ar    1  UNL1        0.0312
      5 C          63.9902   89.0090   13.4513 C.ar    1  UNL1        0.0556
      6 C          64.0077   90.5015   13.6003 C.ar    1  UNL1        0.0856
      7 C          63.3143   91.3644   12.5880 C.ar    1  UNL1        0.1045
      8 N          62.6034   90.7348   11.4269 N.ar    1  UNL1       -0.2436
      9 C          62.5860   89.2423   11.2779 C.ar    1  UNL1        0.0825
     10 C          61.8751   88.6127   10.1168 C.ar    1  UNL1        0.0193
     11 C          63.0918   84.8662    7.9564 C.3     1  UNL1        0.0556
     12 C          61.7140   85.4546    7.8821 C.ar    1  UNL1        0.1006
     13 N          60.6616   85.1103    6.8702 N.ar    1  UNL1       -0.0817
     14 O          59.4439   85.9335    7.1694 O.2     1  UNL1       -0.3581
     15 C          59.7437   86.7866    8.3662 C.ar    1  UNL1        0.1544
     16 C          58.8053   87.7641    9.0095 C.3     1  UNL1        0.0754
     17 C          61.1467   86.4907    8.8067 C.ar    1  UNL1        0.0497
     18 C          64.7186   91.1311   14.7614 C.2     1  UNL1        0.2455
     19 N          66.2141   91.2474   14.7517 N.am    1  UNL1       -0.3252
     20 O          63.9340   91.6444   15.9323 O.2     1  UNL1       -0.2703
     21 H          66.7290   90.9105   13.9832 H       1  UNL1        0.1453
     22 H          66.6806   91.6606   15.5138 H       1  UNL1        0.1453
     23 N          64.6836   88.1461   14.4635 N.pl3   1  UNL1       -0.3123
     24 H          65.6590   88.0202   14.4175 H       1  UNL1        0.1522
     25 C          63.8910   87.4750   15.5458 C.ar    1  UNL1        0.0483
     26 C          63.7380   85.9829   15.5480 C.ar    1  UNL1        0.0146
     27 C          62.9454   85.3118   16.6303 C.ar    1  UNL1        0.0013
     28 C          62.3058   86.1328   17.7105 C.ar    1  UNL1        0.0001
     29 C          62.4588   87.6251   17.7083 C.ar    1  UNL1        0.0013
     30 C          63.2514   88.2962   16.6260 C.ar    1  UNL1        0.0146
@<TRIPOS>BOND
     1    11    12    1
     2    12    13   ar
     3    13    14   ar
     4    14    15   ar
     5    15    16    1
     6    15    17   ar
     7    17     1    1
     8     1     2   ar
     9     2     3   ar
    10     3     4   ar
    11     4     5   ar
    12     5    23    1
    13    23    25    1
    14    25    26   ar
    15    26    27   ar
    16    27    28   ar
    17    28    29   ar
    18    29    30   ar
    19     5     6   ar
    20     6    18    1
    21    18    19   am
    22    18    20    2
    23     6     7   ar
    24     7     8   ar
    25     8     9   ar
    26     9    10   ar
    27    17    12   ar
    28    10     1   ar
    29     9     4   ar
    30    30    25   ar
    31    23    24    1
    32    19    21    1
    33    19    22    1
@<TRIPOS>MOLECULE
*****
 30 33 0 0 0
SMALL
GASTEIGER

@<TRIPOS>ATOM
      1 C          61.8476   87.1462    9.9724 C.ar    1  UNL1        0.0054
      2 C          62.5430   86.2806   10.9809 C.ar    1  UNL1        0.0003
      3 C          63.2569   86.9072   12.1418 C.ar    1  UNL1        0.0027
      4 C          63.2754   88.3993   12.2942 C.ar    1  UNL1        0.0312
      5 C          63.9893   89.0258   13.4552 C.ar    1  UNL1        0.0556
      6 C          64.0078   90.5179   13.6076 C.ar    1  UNL1        0.0856
      7 C          63.3124   91.3835   12.5990 C.ar    1  UNL1        0.1045
      8 N          62.5985   90.7570   11.4381 N.ar    1  UNL1       -0.2436
      9 C          62.5800   89.2649   11.2857 C.ar    1  UNL1        0.0825
     10 C          61.8661   88.6384   10.1248 C.ar    1  UNL1        0.0193
     11 C          58.7981   87.8038    9.0143 C.3     1  UNL1        0.0556
     12 C          59.7320   86.8220    8.3710 C.ar    1  UNL1        0.1006
     13 N          59.4282   85.9700    7.1744 N.ar    1  UNL1       -0.0817
     14 O          60.6421   85.1412    6.8752 O.2     1  UNL1       -0.3581
     15 C          61.6961   85.4809    7.8869 C.ar    1  UNL1        0.1544
     16 C          63.0712   84.8863    7.9611 C.3     1  UNL1        0.0754
     17 C          61.1337   86.5197    8.8114 C.ar    1  UNL1        0.0497
     18 C          64.7217   91.1445   14.7685 C.2     1  UNL1        0.2455
     19 N          66.2153   91.2816   14.7452 N.am    1  UNL1       -0.3252
     20 O          63.9421   91.6339   15.9529 O.2     1  UNL1       -0.2703
     21 H          66.7270   90.9603   13.9679 H       1  UNL1        0.1453
     22 H          66.6838   91.6928   15.5072 H       1  UNL1        0.1453
     23 N          64.6847   88.1602   14.4637 N.pl3   1  UNL1       -0.3123
     24 H          65.6599   88.0345   14.4155 H       1  UNL1        0.1522
     25 C          63.8942   87.4862   15.5458 C.ar    1  UNL1        0.0483
     26 C          63.2523   88.3047   16.6264 C.ar    1  UNL1        0.0146
     27 C          62.4618   87.6307   17.7085 C.ar    1  UNL1        0.0013
     28 C          62.3132   86.1381   17.7098 C.ar    1  UNL1        0.0001
     29 C          62.9551   85.3195   16.6291 C.ar    1  UNL1        0.0013
     30 C          63.7456   85.9935   15.5471 C.ar    1  UNL1        0.0146
@<TRIPOS>BOND
     1    11    12    1
     2    12    13   ar
     3    13    14   ar
     4    14    15   ar
     5    15    16    1
     6    15    17   ar
     7    17     1    1
     8     1     2   ar
     9     2     3   ar
    10     3     4   ar
    11     4     5   ar
    12     5    23    1
    13    23    25    1
    14    25    26   ar
    15    26    27   ar
    16    27    28   ar
    17    28    29   ar
    18    29    30   ar
    19     5     6   ar
    20     6    18    1
    21    18    19   am
    22    18    20    2
    23     6     7   ar
    24     7     8   ar
    25     8     9   ar
    26     9    10   ar
    27    17    12   ar
    28    10     1   ar
    29     9     4   ar
    30    30    25   ar
    31    23    24    1
    32    19    21    1
    33    19    22    1
@<TRIPOS>MOLECULE
*****
 30 33 0 0 0
SMALL
GASTEIGER

@<TRIPOS>ATOM
      1 C          61.4573   88.8077   10.0998 C.ar    1  UNL1        0.0054
      2 C          61.2039   88.6196   11.5662 C.ar    1  UNL1        0.0003
      3 C          62.0035   89.3950   12.5709 C.ar    1  UNL1        0.0027
      4 C          63.0564   90.3584   12.1092 C.ar    1  UNL1        0.0312
      5 C          63.8560   91.1337   13.1140 C.ar    1  UNL1        0.0556
      6 C          64.9090   92.0971   12.6523 C.ar    1  UNL1        0.0856
      7 C          65.1623   92.2852   11.1858 C.ar    1  UNL1        0.1045
      8 N          64.3628   91.5098   10.1811 N.ar    1  UNL1       -0.2436
      9 C          63.3098   90.5464   10.6428 C.ar    1  UNL1        0.0825
     10 C          62.5102   89.7711    9.6381 C.ar    1  UNL1        0.0193
     11 C          61.4029   85.5599    9.7855 C.3     1  UNL1        0.0556
     12 C          60.6327   86.5395    8.9505 C.ar    1  UNL1        0.1006
     13 N          59.7023   86.1983    7.8245 N.ar    1  UNL1       -0.0817
     14 O          59.1522   87.4803    7.2730 O.2     1  UNL1       -0.3581
     15 C          59.7427   88.6137    8.0582 C.ar    1  UNL1        0.1544
     16 C          59.4667   90.0725    7.8442 C.3     1  UNL1        0.0754
     17 C          60.6577   88.0323    9.0950 C.ar    1  UNL1        0.0497
     18 C          65.7086   92.8724   13.6570 C.2     1  UNL1        0.2455
     19 N          66.7973   93.7964   13.1974 N.am    1  UNL1       -0.3252
     20 O          65.4195   92.7239   15.1214 O.2     1  UNL1       -0.2703
     21 H          66.9870   93.8938   12.2363 H       1  UNL1        0.1453
     22 H          67.3220   94.3052   13.8568 H       1  UNL1        0.1453
     23 N          63.6026   90.9457   14.5804 N.pl3   1  UNL1       -0.3123
     24 H          63.4127   91.7251   15.1511 H       1  UNL1        0.1522
     25 C          63.6387   89.5701   15.1774 C.ar    1  UNL1        0.0483
     26 C          62.9684   89.3056   16.4930 C.ar    1  UNL1        0.0146
     27 C          63.0045   87.9300   17.0900 C.ar    1  UNL1        0.0013
     28 C          63.7109   86.8188   16.3714 C.ar    1  UNL1        0.0001
     29 C          64.3812   87.0833   15.0558 C.ar    1  UNL1        0.0013
     30 C          64.3451   88.4589   14.4588 C.ar    1  UNL1        0.0146
@<TRIPOS>BOND
     1    11    12    1
     2    12    13   ar
     3    13    14   ar
     4    14    15   ar
     5    15    16    1
     6    15    17   ar
     7    17     1    1
     8     1     2   ar
     9     2     3   ar
    10     3     4   ar
    11     4     5   ar
    12     5    23    1
    13    23    25    1
    14    25    26   ar
    15    26    27   ar
    16    27    28   ar
    17    28    29   ar
    18    29    30   ar
    19     5     6   ar
    20     6    18    1
    21    18    19   am
    22    18    20    2
    23     6     7   ar
    24     7     8   ar
    25     8     9   ar
    26     9    10   ar
    27    17    12   ar
    28    10     1   ar
    29     9     4   ar
    30    30    25   ar
    31    23    24    1
    32    19    21    1
    33    19    22    1
@<TRIPOS>MOLECULE
*****
 30 33 0 0 0
SMALL
GASTEIGER

@<TRIPOS>ATOM
      1 C          62.9122   84.5129   12.1985 C.ar    1  UNL1        0.0054
      2 C          62.9883   85.7594   13.0294 C.ar    1  UNL1        0.0003
      3 C          62.4098   87.0426   12.5112 C.ar    1  UNL1        0.0027
      4 C          61.7552   87.0794   11.1620 C.ar    1  UNL1        0.0312
      5 C          61.1767   88.3627   10.6438 C.ar    1  UNL1        0.0556
      6 C          60.5222   88.3994    9.2947 C.ar    1  UNL1        0.0856
      7 C          60.4461   87.1529    8.4638 C.ar    1  UNL1        0.1045
      8 N          61.0246   85.8696    8.9820 N.ar    1  UNL1       -0.2436
      9 C          61.6791   85.8329   10.3311 C.ar    1  UNL1        0.0825
     10 C          62.2576   84.5496   10.8494 C.ar    1  UNL1        0.0193
     11 C          62.5716   83.3390   15.2244 C.3     1  UNL1        0.0556
     12 C          63.3341   82.6900   14.1075 C.ar    1  UNL1        0.1006
     13 N          64.0740   81.3875   14.1855 N.ar    1  UNL1       -0.0817
     14 O          64.6879   81.1220   12.8428 O.2     1  UNL1       -0.3581
     15 C          64.3274   82.2605   11.9351 C.ar    1  UNL1        0.1544
     16 C          64.7324   82.4046   10.4980 C.3     1  UNL1        0.0754
     17 C          63.4907   83.2295   12.7167 C.ar    1  UNL1        0.0497
     18 C          59.9437   89.6827    8.7764 C.2     1  UNL1        0.2455
     19 N          59.7691   89.8845    7.3003 N.am    1  UNL1       -0.3252
     20 O          59.5398   90.7641    9.7342 O.2     1  UNL1       -0.2703
     21 H          60.0342   89.1748    6.6717 H       1  UNL1        0.1453
     22 H          59.3894   90.7268    6.9602 H       1  UNL1        0.1453
     23 N          61.2528   89.6092   11.4747 N.pl3   1  UNL1       -0.3123
     24 H          60.4726   89.8985   12.0007 H       1  UNL1        0.1522
     25 C          62.5178   90.4148   11.5042 C.ar    1  UNL1        0.0483
     26 C          63.2837   90.5618   12.7855 C.ar    1  UNL1        0.0146
     27 C          64.5486   91.3675   12.8150 C.ar    1  UNL1        0.0013
     28 C          65.0476   92.0261   11.5632 C.ar    1  UNL1        0.0001
     29 C          64.2818   91.8791   10.2818 C.ar    1  UNL1        0.0013
     30 C          63.0168   91.0735   10.2523 C.ar    1  UNL1        0.0146
@<TRIPOS>BOND
     1    11    12    1
     2    12    13   ar
     3    13    14   ar
     4    14    15   ar
     5    15    16    1
     6    15    17   ar
     7    17     1    1
     8     1     2   ar
     9     2     3   ar
    10     3     4   ar
    11     4     5   ar
    12     5    23    1
    13    23    25    1
    14    25    26   ar
    15    26    27   ar
    16    27    28   ar
    17    28    29   ar
    18    29    30   ar
    19     5     6   ar
    20     6    18    1
    21    18    19   am
    22    18    20    2
    23     6     7   ar
    24     7     8   ar
    25     8     9   ar
    26     9    10   ar
    27    17    12   ar
    28    10     1   ar
    29     9     4   ar
    30    30    25   ar
    31    23    24    1
    32    19    21    1
    33    19    22    1
