@<TRIPOS>MOLECULE
*****
 33 36 0 0 0
SMALL
GASTEIGER

@<TRIPOS>ATOM
      1 C          61.1667   88.1891   10.8667 C.3     1  UNL1        0.0393
      2 C          59.8398   87.8158   11.4586 C.3     1  UNL1        0.1452
      3 O          59.0861   89.0813   11.7419 O.3     1  UNL1       -0.3306
      4 C          59.9470   90.2368   11.3252 C.3     1  UNL1        0.2320
      5 O          59.5856   91.6888   11.4307 O.3     1  UNL1       -0.3601
      6 C          61.2329   89.6854   10.7842 C.3     1  UNL1        0.0634
      7 H          60.3166   92.2294   11.0926 H       1  UNL1        0.2129
      8 C          62.2389   87.2339   10.4334 C.3     1  UNL1        0.0292
      9 C          63.6170   85.3078   13.6180 C.ar    1  UNL1        0.1751
     10 C          63.1954   86.4244   12.7093 C.ar    1  UNL1        0.0360
     11 C          62.6605   86.1173   11.3421 C.ar    1  UNL1       -0.0159
     12 C          62.5472   84.6937   10.8833 C.ar    1  UNL1        0.0361
     13 C          62.9688   83.5772   11.7919 C.ar    1  UNL1        0.1792
     14 C          63.5037   83.8842   13.1592 C.ar    1  UNL1        0.2100
     15 O          63.8382   82.5843   13.8288 O.3     1  UNL1       -0.4315
     16 C          63.5102   81.4739   12.8752 C.3     1  UNL1        0.4295
     17 O          62.9728   82.0875   11.6164 O.3     1  UNL1       -0.4345
     18 O          64.1518   85.6149   14.9854 O.3     1  UNL1       -0.4723
     19 C          63.0032   86.4332   17.1673 C.3     1  UNL1        0.0512
     20 C          63.3164   85.3316   16.1985 C.3     1  UNL1        0.2057
     21 C          62.3830   90.4892   10.2540 C.3     1  UNL1        0.0317
     22 C          63.4294   91.0112   11.1933 C.ar    1  UNL1       -0.0158
     23 C          64.4138   92.0404   10.7224 C.ar    1  UNL1        0.0360
     24 C          65.4603   92.5625   11.6617 C.ar    1  UNL1        0.1751
     25 C          65.5224   92.0554   13.0720 C.ar    1  UNL1        0.2060
     26 C          64.5380   91.0261   13.5430 C.ar    1  UNL1        0.1751
     27 C          63.4915   90.5041   12.6036 C.ar    1  UNL1        0.0360
     28 O          66.4446   93.5917   11.1908 O.3     1  UNL1       -0.4683
     29 C          66.2038   95.0449   11.4744 C.3     1  UNL1        0.2526
     30 O          66.5688   92.5774   14.0114 O.3     1  UNL1       -0.4654
     31 C          67.9449   91.9805   14.0079 C.3     1  UNL1        0.2528
     32 O          64.6001   90.5190   14.9533 O.3     1  UNL1       -0.4683
     33 C          63.4226   89.8025   15.5452 C.3     1  UNL1        0.2526
@<TRIPOS>BOND
     1    19    20    1
     2    20    18    1
     3    18     9    1
     4     9    10   ar
     5    10    11   ar
     6    11     8    1
     7     1     8    1
     8     1     2    1
     9     2     3    1
    10     3     4    1
    11     4     5    1
    12     4     6    1
    13     6    21    1
    14    21    22    1
    15    22    23   ar
    16    23    24   ar
    17    24    28    1
    18    28    29    1
    19    24    25   ar
    20    25    30    1
    21    30    31    1
    22    25    26   ar
    23    26    32    1
    24    32    33    1
    25    26    27   ar
    26    11    12   ar
    27    12    13   ar
    28    13    14   ar
    29    14    15    1
    30    15    16    1
    31    16    17    1
    32    14     9   ar
    33     6     1    1
    34    27    22   ar
    35    17    13    1
    36     5     7    1
@<TRIPOS>MOLECULE
*****
 33 36 0 0 0
SMALL
GASTEIGER

@<TRIPOS>ATOM
      1 C          61.6421   89.0991    9.8927 C.3     1  UNL1        0.0393
      2 C          60.3935   89.9055   10.0949 C.3     1  UNL1        0.1452
      3 O          59.2255   89.0657    9.6702 O.3     1  UNL1       -0.3306
      4 C          59.7521   87.7403    9.2057 C.3     1  UNL1        0.2320
      5 O          58.9296   86.5952    8.6935 O.3     1  UNL1       -0.3601
      6 C          61.2456   87.7609    9.3432 C.3     1  UNL1        0.0634
      7 H          59.5135   85.8567    8.4599 H       1  UNL1        0.2129
      8 C          63.0414   89.5514   10.1883 C.3     1  UNL1        0.0292
      9 C          64.5800   91.8945   12.9978 C.ar    1  UNL1        0.1751
     10 C          64.2424   91.3337   11.6481 C.ar    1  UNL1        0.0360
     11 C          63.3790   90.1122   11.5380 C.ar    1  UNL1       -0.0159
     12 C          62.8530   89.4513   12.7776 C.ar    1  UNL1        0.0361
     13 C          63.1905   90.0120   14.1273 C.ar    1  UNL1        0.1792
     14 C          64.0540   91.2336   14.2374 C.ar    1  UNL1        0.2100
     15 O          64.2174   91.5561   15.6932 O.3     1  UNL1       -0.4315
     16 C          63.4548   90.5338   16.4828 C.3     1  UNL1        0.4295
     17 O          62.8202   89.5795   15.5150 O.3     1  UNL1       -0.4345
     18 O          65.4435   93.1161   13.1079 O.3     1  UNL1       -0.4723
     19 C          67.6469   91.8343   13.6096 C.3     1  UNL1        0.0512
     20 C          66.7706   93.0364   13.8023 C.3     1  UNL1        0.2057
     21 C          62.1789   86.6400    8.9927 C.3     1  UNL1        0.0317
     22 C          62.6621   85.7045   10.0610 C.ar    1  UNL1       -0.0158
     23 C          62.5886   86.1109   11.5030 C.ar    1  UNL1        0.0360
     24 C          63.0718   85.1753   12.5714 C.ar    1  UNL1        0.1751
     25 C          63.6285   83.8335   12.1977 C.ar    1  UNL1        0.2060
     26 C          63.7019   83.4272   10.7556 C.ar    1  UNL1        0.1751
     27 C          63.2187   84.3627    9.6873 C.ar    1  UNL1        0.0360
     28 O          62.9983   85.5817   14.0134 O.3     1  UNL1       -0.4683
     29 C          64.2271   86.0776   14.7165 C.3     1  UNL1        0.2526
     30 O          64.1116   82.8980   13.2660 O.3     1  UNL1       -0.4654
     31 C          63.1438   81.9823   13.9550 C.3     1  UNL1        0.2528
     32 O          64.2586   82.0854   10.3819 O.3     1  UNL1       -0.4683
     33 C          63.3683   80.8781   10.3805 C.3     1  UNL1        0.2526
@<TRIPOS>BOND
     1    19    20    1
     2    20    18    1
     3    18     9    1
     4     9    10   ar
     5    10    11   ar
     6    11     8    1
     7     1     8    1
     8     1     2    1
     9     2     3    1
    10     3     4    1
    11     4     5    1
    12     4     6    1
    13     6    21    1
    14    21    22    1
    15    22    23   ar
    16    23    24   ar
    17    24    28    1
    18    28    29    1
    19    24    25   ar
    20    25    30    1
    21    30    31    1
    22    25    26   ar
    23    26    32    1
    24    32    33    1
    25    26    27   ar
    26    11    12   ar
    27    12    13   ar
    28    13    14   ar
    29    14    15    1
    30    15    16    1
    31    16    17    1
    32    14     9   ar
    33     6     1    1
    34    27    22   ar
    35    17    13    1
    36     5     7    1
@<TRIPOS>MOLECULE
*****
 33 36 0 0 0
SMALL
GASTEIGER

@<TRIPOS>ATOM
      1 C          61.6853   89.2013    9.9042 C.3     1  UNL1        0.0393
      2 C          60.3889   89.9351   10.0802 C.3     1  UNL1        0.1452
      3 O          59.2772   89.0191    9.6619 O.3     1  UNL1       -0.3306
      4 C          59.8865   87.7191    9.2273 C.3     1  UNL1        0.2320
      5 O          59.1388   86.5175    8.7303 O.3     1  UNL1       -0.3601
      6 C          61.3747   87.8317    9.3770 C.3     1  UNL1        0.0634
      7 H          59.7680   85.8111    8.5158 H       1  UNL1        0.2129
      8 C          63.0521   89.7421   10.2028 C.3     1  UNL1        0.0292
      9 C          64.6641   91.8258   13.1710 C.ar    1  UNL1        0.1751
     10 C          64.3282   91.3600   11.7852 C.ar    1  UNL1        0.0360
     11 C          63.3881   90.2079   11.5886 C.ar    1  UNL1       -0.0159
     12 C          62.7838   89.5215   12.7775 C.ar    1  UNL1        0.0361
     13 C          63.1197   89.9873   14.1633 C.ar    1  UNL1        0.1792
     14 C          64.0598   91.1394   14.3600 C.ar    1  UNL1        0.2100
     15 O          64.2030   91.3743   15.8345 O.3     1  UNL1       -0.4315
     16 C          63.3514   90.3673   16.5491 C.3     1  UNL1        0.4295
     17 O          62.6818   89.5101   15.5162 O.3     1  UNL1       -0.4345
     18 O          65.6042   92.9780   13.3677 O.3     1  UNL1       -0.4723
     19 C          67.6112   92.2849   14.8648 C.3     1  UNL1        0.0512
     20 C          67.0734   92.7269   13.5361 C.3     1  UNL1        0.2057
     21 C          62.3766   86.7624    9.0560 C.3     1  UNL1        0.0317
     22 C          62.7684   85.7629   10.1035 C.ar    1  UNL1       -0.0158
     23 C          63.2740   84.4103    9.6975 C.ar    1  UNL1        0.0360
     24 C          63.6659   83.4106   10.7451 C.ar    1  UNL1        0.1751
     25 C          63.5520   83.7636   12.1985 C.ar    1  UNL1        0.2060
     26 C          63.0463   85.1163   12.6044 C.ar    1  UNL1        0.1751
     27 C          62.6545   86.1159   11.5569 C.ar    1  UNL1        0.0360
     28 O          64.1715   82.0581   10.3391 O.3     1  UNL1       -0.4683
     29 C          63.2659   80.8647   10.4159 C.3     1  UNL1        0.2526
     30 O          63.9438   82.7641   13.2460 O.3     1  UNL1       -0.4654
     31 C          62.8868   81.9920   13.9786 C.3     1  UNL1        0.2528
     32 O          62.9325   85.4693   14.0578 O.3     1  UNL1       -0.4683
     33 C          64.1218   86.0126   14.7930 C.3     1  UNL1        0.2526
@<TRIPOS>BOND
     1    19    20    1
     2    20    18    1
     3    18     9    1
     4     9    10   ar
     5    10    11   ar
     6    11     8    1
     7     1     8    1
     8     1     2    1
     9     2     3    1
    10     3     4    1
    11     4     5    1
    12     4     6    1
    13     6    21    1
    14    21    22    1
    15    22    23   ar
    16    23    24   ar
    17    24    28    1
    18    28    29    1
    19    24    25   ar
    20    25    30    1
    21    30    31    1
    22    25    26   ar
    23    26    32    1
    24    32    33    1
    25    26    27   ar
    26    11    12   ar
    27    12    13   ar
    28    13    14   ar
    29    14    15    1
    30    15    16    1
    31    16    17    1
    32    14     9   ar
    33     6     1    1
    34    27    22   ar
    35    17    13    1
    36     5     7    1
@<TRIPOS>MOLECULE
*****
 33 36 0 0 0
SMALL
GASTEIGER

@<TRIPOS>ATOM
      1 C          61.2504   87.9885   10.7555 C.3     1  UNL1        0.0393
      2 C          59.8807   87.6999   11.2948 C.3     1  UNL1        0.1452
      3 O          59.2032   89.0106   11.5649 O.3     1  UNL1       -0.3306
      4 C          60.1541   90.1093   11.1925 C.3     1  UNL1        0.2320
      5 O          59.8867   91.5813   11.3013 O.3     1  UNL1       -0.3601
      6 C          61.4193   89.4776   10.6923 C.3     1  UNL1        0.0634
      7 H          60.6641   92.0746   10.9959 H       1  UNL1        0.2129
      8 C          62.2718   86.9674   10.3505 C.3     1  UNL1        0.0292
      9 C          63.5782   85.2077   13.6592 C.ar    1  UNL1        0.1751
     10 C          63.1605   86.2752   12.6917 C.ar    1  UNL1        0.0360
     11 C          62.6894   85.8998   11.3180 C.ar    1  UNL1       -0.0159
     12 C          62.6359   84.4569   10.9117 C.ar    1  UNL1        0.0361
     13 C          63.0536   83.3894   11.8792 C.ar    1  UNL1        0.1792
     14 C          63.5247   83.7648   13.2529 C.ar    1  UNL1        0.2100
     15 O          63.8703   82.5023   13.9855 O.3     1  UNL1       -0.4315
     16 C          63.6127   81.3467   13.0646 C.3     1  UNL1        0.4295
     17 O          63.1080   81.8949   11.7628 O.3     1  UNL1       -0.4345
     18 O          64.0494   85.5832   15.0329 O.3     1  UNL1       -0.4723
     19 C          62.9566   86.3702   17.2546 C.3     1  UNL1        0.0512
     20 C          63.1836   85.3030   16.2253 C.3     1  UNL1        0.2057
     21 C          62.6393   90.2071   10.2130 C.3     1  UNL1        0.0317
     22 C          63.5159   90.9278   11.1938 C.ar    1  UNL1       -0.0158
     23 C          63.3781   90.6572   12.6627 C.ar    1  UNL1        0.0360
     24 C          64.2547   91.3779   13.6436 C.ar    1  UNL1        0.1751
     25 C          65.2692   92.3692   13.1556 C.ar    1  UNL1        0.2060
     26 C          65.4069   92.6398   11.6866 C.ar    1  UNL1        0.1751
     27 C          64.5303   91.9191   10.7058 C.ar    1  UNL1        0.0360
     28 O          64.1169   91.1072   15.1125 O.3     1  UNL1       -0.4683
     29 C          63.5098   89.8191   15.5842 C.3     1  UNL1        0.2526
     30 O          66.1458   93.0899   14.1364 O.3     1  UNL1       -0.4654
     31 C          67.5178   92.5662   14.4420 C.3     1  UNL1        0.2528
     32 O          66.4214   93.6312   11.1985 O.3     1  UNL1       -0.4683
     33 C          66.1119   95.0986   11.2308 C.3     1  UNL1        0.2526
@<TRIPOS>BOND
     1    19    20    1
     2    20    18    1
     3    18     9    1
     4     9    10   ar
     5    10    11   ar
     6    11     8    1
     7     1     8    1
     8     1     2    1
     9     2     3    1
    10     3     4    1
    11     4     5    1
    12     4     6    1
    13     6    21    1
    14    21    22    1
    15    22    23   ar
    16    23    24   ar
    17    24    28    1
    18    28    29    1
    19    24    25   ar
    20    25    30    1
    21    30    31    1
    22    25    26   ar
    23    26    32    1
    24    32    33    1
    25    26    27   ar
    26    11    12   ar
    27    12    13   ar
    28    13    14   ar
    29    14    15    1
    30    15    16    1
    31    16    17    1
    32    14     9   ar
    33     6     1    1
    34    27    22   ar
    35    17    13    1
    36     5     7    1
@<TRIPOS>MOLECULE
*****
 33 36 0 0 0
SMALL
GASTEIGER

@<TRIPOS>ATOM
      1 C          61.1021   88.2943   10.2618 C.3     1  UNL1        0.0393
      2 C          59.6949   87.9309   10.6329 C.3     1  UNL1        0.1452
      3 O          59.0123   89.1700   11.1317 O.3     1  UNL1       -0.3306
      4 C          59.9976   90.2992   11.0688 C.3     1  UNL1        0.2320
      5 O          59.7371   91.7202   11.4726 O.3     1  UNL1       -0.3601
      6 C          61.2892   89.7580   10.5312 C.3     1  UNL1        0.0634
      7 H          60.5389   92.2481   11.3334 H       1  UNL1        0.2129
      8 C          62.1400   87.3584    9.7170 C.3     1  UNL1        0.0292
      9 C          62.7212   84.8472   12.7347 C.ar    1  UNL1        0.1751
     10 C          62.3529   86.0850   11.9715 C.ar    1  UNL1        0.0360
     11 C          62.5082   86.1206   10.4801 C.ar    1  UNL1       -0.0159
     12 C          63.0317   84.9184    9.7516 C.ar    1  UNL1        0.0361
     13 C          63.4000   83.6806   10.5147 C.ar    1  UNL1        0.1792
     14 C          63.2447   83.6450   12.0062 C.ar    1  UNL1        0.2100
     15 O          63.6864   82.2942   12.4862 O.3     1  UNL1       -0.4315
     16 C          64.1146   81.4950   11.2912 C.3     1  UNL1        0.4295
     17 O          63.9376   82.3518   10.0728 O.3     1  UNL1       -0.4345
     18 O          62.5659   84.8116   14.2262 O.3     1  UNL1       -0.4723
     19 C          64.8111   85.9419   14.8829 C.3     1  UNL1        0.0512
     20 C          63.7773   84.8787   15.1082 C.3     1  UNL1        0.2057
     21 C          62.5470   90.5429   10.3030 C.3     1  UNL1        0.0317
     22 C          63.4875   90.8004   11.4428 C.ar    1  UNL1       -0.0158
     23 C          64.5051   91.8978   11.3421 C.ar    1  UNL1        0.0360
     24 C          65.4456   92.1554   12.4819 C.ar    1  UNL1        0.1751
     25 C          65.3685   91.3155   13.7224 C.ar    1  UNL1        0.2060
     26 C          64.3509   90.2180   13.8230 C.ar    1  UNL1        0.1751
     27 C          63.4104   89.9605   12.6832 C.ar    1  UNL1        0.0360
     28 O          66.4631   93.2529   12.3813 O.3     1  UNL1       -0.4683
     29 C          66.1401   94.5083   11.6265 C.3     1  UNL1        0.2526
     30 O          66.3090   91.5731   14.8621 O.3     1  UNL1       -0.4654
     31 C          65.9014   92.4879   15.9788 C.3     1  UNL1        0.2528
     32 O          64.2738   89.3781   15.0634 O.3     1  UNL1       -0.4683
     33 C          63.2755   89.7097   16.1328 C.3     1  UNL1        0.2526
@<TRIPOS>BOND
     1    19    20    1
     2    20    18    1
     3    18     9    1
     4     9    10   ar
     5    10    11   ar
     6    11     8    1
     7     1     8    1
     8     1     2    1
     9     2     3    1
    10     3     4    1
    11     4     5    1
    12     4     6    1
    13     6    21    1
    14    21    22    1
    15    22    23   ar
    16    23    24   ar
    17    24    28    1
    18    28    29    1
    19    24    25   ar
    20    25    30    1
    21    30    31    1
    22    25    26   ar
    23    26    32    1
    24    32    33    1
    25    26    27   ar
    26    11    12   ar
    27    12    13   ar
    28    13    14   ar
    29    14    15    1
    30    15    16    1
    31    16    17    1
    32    14     9   ar
    33     6     1    1
    34    27    22   ar
    35    17    13    1
    36     5     7    1
@<TRIPOS>MOLECULE
*****
 33 36 0 0 0
SMALL
GASTEIGER

@<TRIPOS>ATOM
      1 C          61.8317   90.4347   10.5320 C.3     1  UNL1        0.0393
      2 C          60.7676   91.3420   11.0747 C.3     1  UNL1        0.1452
      3 O          59.5813   90.4992   11.4388 O.3     1  UNL1       -0.3306
      4 C          59.9123   89.0711   11.1211 C.3     1  UNL1        0.2320
      5 O          59.0108   87.8901   11.3276 O.3     1  UNL1       -0.3601
      6 C          61.3031   89.0312   10.5607 C.3     1  UNL1        0.0634
      7 H          59.4652   87.0824   11.0412 H       1  UNL1        0.2129
      8 C          63.1866   90.8568   10.0459 C.3     1  UNL1        0.0292
      9 C          66.1081   93.1863   11.3833 C.ar    1  UNL1        0.1751
     10 C          65.1541   92.5054   10.4472 C.ar    1  UNL1        0.0360
     11 C          64.1406   91.5378   10.9821 C.ar    1  UNL1       -0.0159
     12 C          64.0809   91.2509   12.4532 C.ar    1  UNL1        0.0361
     13 C          65.0348   91.9318   13.3893 C.ar    1  UNL1        0.1792
     14 C          66.0484   92.8995   12.8544 C.ar    1  UNL1        0.2100
     15 O          66.8527   93.4150   14.0109 O.3     1  UNL1       -0.4315
     16 C          66.3361   92.7658   15.2606 C.3     1  UNL1        0.4295
     17 O          65.2126   91.8492   14.8765 O.3     1  UNL1       -0.4345
     18 O          67.1217   94.1541   10.8483 O.3     1  UNL1       -0.4723
     19 C          68.5902   92.5819    9.3917 C.3     1  UNL1        0.0512
     20 C          67.8279   93.8631    9.5573 C.3     1  UNL1        0.2057
     21 C          62.0366   87.8034   10.1084 C.3     1  UNL1        0.0317
     22 C          62.4848   86.7845   11.1138 C.ar    1  UNL1       -0.0158
     23 C          63.1099   87.2279   12.4032 C.ar    1  UNL1        0.0360
     24 C          63.5582   86.2090   13.4087 C.ar    1  UNL1        0.1751
     25 C          63.3814   84.7467   13.1247 C.ar    1  UNL1        0.2060
     26 C          62.7563   84.3034   11.8352 C.ar    1  UNL1        0.1751
     27 C          62.3081   85.3223   10.8297 C.ar    1  UNL1        0.0360
     28 O          64.1832   86.6523   14.6982 O.3     1  UNL1       -0.4683
     29 C          64.3486   88.1149   14.9876 C.3     1  UNL1        0.2526
     30 O          63.8297   83.7279   14.1301 O.3     1  UNL1       -0.4654
     31 C          62.8854   83.2630   15.1989 C.3     1  UNL1        0.2528
     32 O          62.5796   82.8412   11.5511 O.3     1  UNL1       -0.4683
     33 C          63.6819   82.0667   10.8915 C.3     1  UNL1        0.2526
@<TRIPOS>BOND
     1    19    20    1
     2    20    18    1
     3    18     9    1
     4     9    10   ar
     5    10    11   ar
     6    11     8    1
     7     1     8    1
     8     1     2    1
     9     2     3    1
    10     3     4    1
    11     4     5    1
    12     4     6    1
    13     6    21    1
    14    21    22    1
    15    22    23   ar
    16    23    24   ar
    17    24    28    1
    18    28    29    1
    19    24    25   ar
    20    25    30    1
    21    30    31    1
    22    25    26   ar
    23    26    32    1
    24    32    33    1
    25    26    27   ar
    26    11    12   ar
    27    12    13   ar
    28    13    14   ar
    29    14    15    1
    30    15    16    1
    31    16    17    1
    32    14     9   ar
    33     6     1    1
    34    27    22   ar
    35    17    13    1
    36     5     7    1
@<TRIPOS>MOLECULE
*****
 33 36 0 0 0
SMALL
GASTEIGER

@<TRIPOS>ATOM
      1 C          61.1244   88.1455   10.5923 C.3     1  UNL1        0.0393
      2 C          59.8069   87.7370   11.1819 C.3     1  UNL1        0.1452
      3 O          59.0910   88.9793   11.6224 O.3     1  UNL1       -0.3306
      4 C          59.9660   90.1557   11.3051 C.3     1  UNL1        0.2320
      5 O          59.6413   91.5947   11.5768 O.3     1  UNL1       -0.3601
      6 C          61.2226   89.6403   10.6685 C.3     1  UNL1        0.0634
      7 H          60.3746   92.1540   11.2759 H       1  UNL1        0.2129
      8 C          62.1613   87.2215   10.0260 C.3     1  UNL1        0.0292
      9 C          63.4772   83.6099   11.0140 C.ar    1  UNL1        0.1751
     10 C          62.9662   84.7568   10.1933 C.ar    1  UNL1        0.0360
     11 C          62.6723   86.0745   10.8468 C.ar    1  UNL1       -0.0159
     12 C          62.8894   86.2455   12.3211 C.ar    1  UNL1        0.0361
     13 C          63.4004   85.0987   13.1419 C.ar    1  UNL1        0.1792
     14 C          63.6942   83.7809   12.4883 C.ar    1  UNL1        0.2100
     15 O          64.1848   82.8378   13.5466 O.3     1  UNL1       -0.4315
     16 C          64.1941   83.5727   14.8542 C.3     1  UNL1        0.4295
     17 O          63.7093   84.9700   14.6041 O.3     1  UNL1       -0.4345
     18 O          63.7710   82.2921   10.3604 O.3     1  UNL1       -0.4723
     19 C          62.8937   79.8882    9.9123 C.3     1  UNL1        0.0512
     20 C          63.0906   81.0463   10.8450 C.3     1  UNL1        0.2057
     21 C          62.3753   90.4736   10.1918 C.3     1  UNL1        0.0317
     22 C          63.4060   90.9569   11.1685 C.ar    1  UNL1       -0.0158
     23 C          64.3205   92.0860   10.7964 C.ar    1  UNL1        0.0360
     24 C          65.3513   92.5694   11.7732 C.ar    1  UNL1        0.1751
     25 C          65.4674   91.9235   13.1220 C.ar    1  UNL1        0.2060
     26 C          64.5528   90.7942   13.4941 C.ar    1  UNL1        0.1751
     27 C          63.5221   90.3110   12.5173 C.ar    1  UNL1        0.0360
     28 O          66.2659   93.6985   11.4011 O.3     1  UNL1       -0.4683
     29 C          66.8772   93.7486   10.0322 C.3     1  UNL1        0.2526
     30 O          66.4981   92.4067   14.0987 O.3     1  UNL1       -0.4654
     31 C          67.9266   91.9709   13.9588 C.3     1  UNL1        0.2528
     32 O          64.6689   90.1483   14.8429 O.3     1  UNL1       -0.4683
     33 C          63.5391   90.2526   15.8241 C.3     1  UNL1        0.2526
@<TRIPOS>BOND
     1    19    20    1
     2    20    18    1
     3    18     9    1
     4     9    10   ar
     5    10    11   ar
     6    11     8    1
     7     1     8    1
     8     1     2    1
     9     2     3    1
    10     3     4    1
    11     4     5    1
    12     4     6    1
    13     6    21    1
    14    21    22    1
    15    22    23   ar
    16    23    24   ar
    17    24    28    1
    18    28    29    1
    19    24    25   ar
    20    25    30    1
    21    30    31    1
    22    25    26   ar
    23    26    32    1
    24    32    33    1
    25    26    27   ar
    26    11    12   ar
    27    12    13   ar
    28    13    14   ar
    29    14    15    1
    30    15    16    1
    31    16    17    1
    32    14     9   ar
    33     6     1    1
    34    27    22   ar
    35    17    13    1
    36     5     7    1
@<TRIPOS>MOLECULE
*****
 33 36 0 0 0
SMALL
GASTEIGER

@<TRIPOS>ATOM
      1 C          61.1237   88.0623   10.6224 C.3     1  UNL1        0.0393
      2 C          59.7719   87.7302   11.1814 C.3     1  UNL1        0.1452
      3 O          59.0975   89.0159   11.5583 O.3     1  UNL1       -0.3306
      4 C          60.0324   90.1426   11.2322 C.3     1  UNL1        0.2320
      5 O          59.7625   91.6025   11.4468 O.3     1  UNL1       -0.3601
      6 C          61.2847   89.5533   10.6538 C.3     1  UNL1        0.0634
      7 H          60.5284   92.1197   11.1523 H       1  UNL1        0.2129
      8 C          62.1366   87.0765   10.1202 C.3     1  UNL1        0.0292
      9 C          63.4940   83.5970   11.4624 C.ar    1  UNL1        0.1751
     10 C          62.9426   84.6423   10.5385 C.ar    1  UNL1        0.0360
     11 C          62.6880   86.0313   11.0441 C.ar    1  UNL1       -0.0159
     12 C          62.9848   86.3752   12.4736 C.ar    1  UNL1        0.0361
     13 C          63.5361   85.3300   13.3975 C.ar    1  UNL1        0.1792
     14 C          63.7908   83.9410   12.8919 C.ar    1  UNL1        0.2100
     15 O          64.3351   83.1266   14.0279 O.3     1  UNL1       -0.4315
     16 C          64.4170   84.0124   15.2356 C.3     1  UNL1        0.4295
     17 O          63.9232   85.3742   14.8461 O.3     1  UNL1       -0.4345
     18 O          63.7486   82.2080   10.9566 O.3     1  UNL1       -0.4723
     19 C          62.7540   80.3915   12.5254 C.3     1  UNL1        0.0512
     20 C          62.7479   81.1207   11.2146 C.3     1  UNL1        0.2057
     21 C          62.4869   90.3204   10.1885 C.3     1  UNL1        0.0317
     22 C          63.4671   90.8574   11.1888 C.ar    1  UNL1       -0.0158
     23 C          63.5714   90.2309   12.5476 C.ar    1  UNL1        0.0360
     24 C          64.5517   90.7680   13.5480 C.ar    1  UNL1        0.1751
     25 C          65.4277   91.9316   13.1894 C.ar    1  UNL1        0.2060
     26 C          65.3234   92.5581   11.8304 C.ar    1  UNL1        0.1751
     27 C          64.3432   92.0210   10.8302 C.ar    1  UNL1        0.0360
     28 O          64.6559   90.1414   14.9068 O.3     1  UNL1       -0.4683
     29 C          63.4459   90.0590   15.7896 C.3     1  UNL1        0.2526
     30 O          66.4080   92.4687   14.1897 O.3     1  UNL1       -0.4654
     31 C          67.8467   92.0485   14.1300 C.3     1  UNL1        0.2528
     32 O          66.1994   93.7217   11.4719 O.3     1  UNL1       -0.4683
     33 C          66.7453   93.8488   10.0804 C.3     1  UNL1        0.2526
@<TRIPOS>BOND
     1    19    20    1
     2    20    18    1
     3    18     9    1
     4     9    10   ar
     5    10    11   ar
     6    11     8    1
     7     1     8    1
     8     1     2    1
     9     2     3    1
    10     3     4    1
    11     4     5    1
    12     4     6    1
    13     6    21    1
    14    21    22    1
    15    22    23   ar
    16    23    24   ar
    17    24    28    1
    18    28    29    1
    19    24    25   ar
    20    25    30    1
    21    30    31    1
    22    25    26   ar
    23    26    32    1
    24    32    33    1
    25    26    27   ar
    26    11    12   ar
    27    12    13   ar
    28    13    14   ar
    29    14    15    1
    30    15    16    1
    31    16    17    1
    32    14     9   ar
    33     6     1    1
    34    27    22   ar
    35    17    13    1
    36     5     7    1
@<TRIPOS>MOLECULE
*****
 33 36 0 0 0
SMALL
GASTEIGER

@<TRIPOS>ATOM
      1 C          61.8461   88.9221   11.4017 C.3     1  UNL1        0.0393
      2 C          60.7072   89.8919   11.5144 C.3     1  UNL1        0.1452
      3 O          59.6976   89.5458   10.4604 O.3     1  UNL1       -0.3306
      4 C          60.2125   88.3621    9.6963 C.3     1  UNL1        0.2320
      5 O          59.5209   87.6830    8.5515 O.3     1  UNL1       -0.3601
      6 C          61.5403   87.9767   10.2781 C.3     1  UNL1        0.0634
      7 H          60.0662   86.9454    8.2360 H       1  UNL1        0.2129
      8 C          63.0749   88.9015   12.2616 C.3     1  UNL1        0.0292
      9 C          65.4569   91.6468   13.8555 C.ar    1  UNL1        0.1751
     10 C          64.6282   90.4059   13.7019 C.ar    1  UNL1        0.0360
     11 C          63.9037   90.1424   12.4152 C.ar    1  UNL1       -0.0159
     12 C          64.0079   91.1196   11.2821 C.ar    1  UNL1        0.0361
     13 C          64.8366   92.3605   11.4356 C.ar    1  UNL1        0.1792
     14 C          65.5611   92.6240   12.7223 C.ar    1  UNL1        0.2100
     15 O          66.2973   93.9234   12.5821 O.3     1  UNL1       -0.4315
     16 C          66.0277   94.4629   11.2086 C.3     1  UNL1        0.4295
     17 O          65.1250   93.4970   10.5001 O.3     1  UNL1       -0.4345
     18 O          66.1814   91.9103   15.1422 O.3     1  UNL1       -0.4723
     19 C          68.4539   92.5333   16.2365 C.3     1  UNL1        0.0512
     20 C          67.6740   91.7746   15.2039 C.3     1  UNL1        0.2057
     21 C          62.4097   86.8445    9.8170 C.3     1  UNL1        0.0317
     22 C          62.6254   85.6550   10.7049 C.ar    1  UNL1       -0.0158
     23 C          63.1913   84.3875   10.1362 C.ar    1  UNL1        0.0360
     24 C          63.4071   83.1979   11.0241 C.ar    1  UNL1        0.1751
     25 C          63.0570   83.2757   12.4806 C.ar    1  UNL1        0.2060
     26 C          62.4911   84.5432   13.0492 C.ar    1  UNL1        0.1751
     27 C          62.2753   85.7328   12.1614 C.ar    1  UNL1        0.0360
     28 O          63.9729   81.9305   10.4555 O.3     1  UNL1       -0.4683
     29 C          63.1098   80.7090   10.3405 C.3     1  UNL1        0.2526
     30 O          63.2727   82.0862   13.3684 O.3     1  UNL1       -0.4654
     31 C          62.0985   81.2851   13.8476 C.3     1  UNL1        0.2528
     32 O          62.1410   84.6211   14.5057 O.3     1  UNL1       -0.4683
     33 C          63.2120   84.8889   15.5213 C.3     1  UNL1        0.2526
@<TRIPOS>BOND
     1    19    20    1
     2    20    18    1
     3    18     9    1
     4     9    10   ar
     5    10    11   ar
     6    11     8    1
     7     1     8    1
     8     1     2    1
     9     2     3    1
    10     3     4    1
    11     4     5    1
    12     4     6    1
    13     6    21    1
    14    21    22    1
    15    22    23   ar
    16    23    24   ar
    17    24    28    1
    18    28    29    1
    19    24    25   ar
    20    25    30    1
    21    30    31    1
    22    25    26   ar
    23    26    32    1
    24    32    33    1
    25    26    27   ar
    26    11    12   ar
    27    12    13   ar
    28    13    14   ar
    29    14    15    1
    30    15    16    1
    31    16    17    1
    32    14     9   ar
    33     6     1    1
    34    27    22   ar
    35    17    13    1
    36     5     7    1
