@<TRIPOS>MOLECULE
*****
 32 36 0 0 0
SMALL
GASTEIGER

@<TRIPOS>ATOM
      1 C          62.2548   88.4734   11.2675 C.ar    1  UNL1        0.2224
      2 N          62.2317   89.2548    9.9874 N.ar    1  UNL1       -0.1127
      3 N          63.1154   90.4544   10.1605 N.ar    1  UNL1       -0.1273
      4 C          63.6848   90.4143   11.5477 C.ar    1  UNL1        0.1704
      5 N          63.1528   89.1900   12.2318 N.ar    1  UNL1       -0.2796
      6 C          63.4244   88.7048   13.6250 C.3     1  UNL1        0.1574
      7 C          64.2948   89.3240   14.6780 C.3     1  UNL1        0.2299
      8 O          65.1087   90.5814   14.5979 O.3     1  UNL1       -0.4733
      9 C          65.2533   91.5302   13.4451 C.ar    1  UNL1        0.1415
     10 C          66.1679   92.6696   13.7844 C.ar    1  UNL1        0.0370
     11 C          66.4487   93.7347   12.7662 C.ar    1  UNL1        0.0031
     12 C          65.8150   93.6603   11.4087 C.ar    1  UNL1        0.0004
     13 C          64.9004   92.5209   11.0694 C.ar    1  UNL1        0.0061
     14 C          64.6195   91.4558   12.0876 C.ar    1  UNL1        0.0699
     15 C          66.0959   94.7254   10.3905 C.ar    1  UNL1        0.0031
     16 C          67.3970   94.7251    9.6442 C.ar    1  UNL1        0.0207
     17 C          67.6779   95.7902    8.6260 C.ar    1  UNL1        0.0989
     18 N          66.6576   96.8557    8.3542 N.ar    1  UNL1       -0.2423
     19 C          65.3565   96.8560    9.1006 C.ar    1  UNL1        0.0989
     20 C          65.0756   95.7909   10.1187 C.ar    1  UNL1        0.0207
     21 N          61.5105   87.1990   11.5362 N.pl3   1  UNL1       -0.2826
     22 H          60.6038   87.2298   11.9184 H       1  UNL1        0.1551
     23 C          63.0337   83.5647   12.0063 C.ar    1  UNL1        0.0726
     24 C          63.4224   83.2355   10.5954 C.ar    1  UNL1        0.0039
     25 C          63.1739   84.2276    9.4981 C.ar    1  UNL1        0.0012
     26 C          62.5366   85.5488    9.8117 C.ar    1  UNL1        0.0147
     27 C          62.1478   85.8779   11.2226 C.ar    1  UNL1        0.0504
     28 C          62.3964   84.8858   12.3199 C.ar    1  UNL1        0.0185
     29 F          63.5309   81.5806   14.2008 F       1  UNL1       -0.1659
     30 C          63.2823   82.5726   13.1036 C.3     1  UNL1        0.4186
     31 F          62.1417   81.7356   12.6052 F       1  UNL1       -0.1659
     32 F          64.4230   83.4096   13.6019 F       1  UNL1       -0.1659
@<TRIPOS>BOND
     1    29    30    1
     2    30    31    1
     3    30    32    1
     4    30    23    1
     5    23    24   ar
     6    24    25   ar
     7    25    26   ar
     8    26    27   ar
     9    27    21    1
    10    21     1    1
    11     1     2   ar
    12     2     3   ar
    13     3     4   ar
    14     4     5   ar
    15     5     6    1
    16     6     7    1
    17     7     8    1
    18     8     9    1
    19     9    10   ar
    20    10    11   ar
    21    11    12   ar
    22    12    15    1
    23    15    16   ar
    24    16    17   ar
    25    17    18   ar
    26    18    19   ar
    27    19    20   ar
    28    12    13   ar
    29    13    14   ar
    30    27    28   ar
    31    28    23   ar
    32     5     1   ar
    33    14     9   ar
    34    14     4    1
    35    20    15   ar
    36    21    22    1
@<TRIPOS>MOLECULE
*****
 32 36 0 0 0
SMALL
GASTEIGER

@<TRIPOS>ATOM
      1 C          64.9042   91.5528   13.2853 C.ar    1  UNL1        0.2224
      2 N          65.2968   90.5344   14.3142 N.ar    1  UNL1       -0.1127
      3 N          64.6642   89.2275   13.9379 N.ar    1  UNL1       -0.1273
      4 C          63.8805   89.4381   12.6763 C.ar    1  UNL1        0.1704
      5 N          64.0290   90.8753   12.2730 N.ar    1  UNL1       -0.2796
      6 C          63.4396   91.5793   11.0869 C.3     1  UNL1        0.1574
      7 C          62.5562   91.0203   10.0111 C.3     1  UNL1        0.2299
      8 O          62.0442   89.6190    9.8559 O.3     1  UNL1       -0.4733
      9 C          62.2889   88.4306   10.7380 C.ar    1  UNL1        0.1415
     10 C          61.5869   87.2102   10.2205 C.ar    1  UNL1        0.0370
     11 C          61.7022   85.9093   10.9583 C.ar    1  UNL1        0.0031
     12 C          62.5195   85.8289   12.2136 C.ar    1  UNL1        0.0004
     13 C          63.2215   87.0493   12.7310 C.ar    1  UNL1        0.0061
     14 C          63.1062   88.3501   11.9932 C.ar    1  UNL1        0.0699
     15 C          62.6348   84.5279   12.9513 C.ar    1  UNL1        0.0031
     16 C          62.7082   84.5193   14.4495 C.ar    1  UNL1        0.0207
     17 C          62.8235   83.2183   15.1873 C.ar    1  UNL1        0.0989
     18 N          62.8653   81.9260   14.4269 N.ar    1  UNL1       -0.2423
     19 C          62.7918   81.9347   12.9286 C.ar    1  UNL1        0.0989
     20 C          62.6766   83.2356   12.1909 C.ar    1  UNL1        0.0207
     21 N          65.3149   92.9954   13.2711 N.pl3   1  UNL1       -0.2826
     22 H          65.1284   93.5680   14.0500 H       1  UNL1        0.1551
     23 C          67.5364   93.2481    9.9923 C.ar    1  UNL1        0.0726
     24 C          67.3991   94.7063    9.6685 C.ar    1  UNL1        0.0039
     25 C          66.5670   95.5942   10.5456 C.ar    1  UNL1        0.0012
     26 C          65.8723   95.0239   11.7464 C.ar    1  UNL1        0.0147
     27 C          66.0096   93.5657   12.0703 C.ar    1  UNL1        0.0504
     28 C          66.8417   92.6778   11.1931 C.ar    1  UNL1        0.0185
     29 F          69.2005   91.4724    8.2380 F       1  UNL1       -0.1659
     30 C          68.3685   92.3602    9.1151 C.3     1  UNL1        0.4186
     31 F          68.4877   91.3674   10.2332 F       1  UNL1       -0.1659
     32 F          68.2492   93.3531    7.9971 F       1  UNL1       -0.1659
@<TRIPOS>BOND
     1    29    30    1
     2    30    31    1
     3    30    32    1
     4    30    23    1
     5    23    24   ar
     6    24    25   ar
     7    25    26   ar
     8    26    27   ar
     9    27    21    1
    10    21     1    1
    11     1     2   ar
    12     2     3   ar
    13     3     4   ar
    14     4     5   ar
    15     5     6    1
    16     6     7    1
    17     7     8    1
    18     8     9    1
    19     9    10   ar
    20    10    11   ar
    21    11    12   ar
    22    12    15    1
    23    15    16   ar
    24    16    17   ar
    25    17    18   ar
    26    18    19   ar
    27    19    20   ar
    28    12    13   ar
    29    13    14   ar
    30    27    28   ar
    31    28    23   ar
    32     5     1   ar
    33    14     9   ar
    34    14     4    1
    35    20    15   ar
    36    21    22    1
@<TRIPOS>MOLECULE
*****
 32 36 0 0 0
SMALL
GASTEIGER

@<TRIPOS>ATOM
      1 C          63.2828   89.1552   12.3126 C.ar    1  UNL1        0.2224
      2 N          63.0790   90.4944   11.6684 N.ar    1  UNL1       -0.1127
      3 N          62.2031   90.3019   10.4660 N.ar    1  UNL1       -0.1273
      4 C          61.8656   88.8436   10.3671 C.ar    1  UNL1        0.1704
      5 N          62.5330   88.1350   11.5084 N.ar    1  UNL1       -0.2796
      6 C          62.5020   86.6744   11.8487 C.3     1  UNL1        0.1574
      7 C          61.7962   85.5618   11.1318 C.3     1  UNL1        0.2299
      8 O          60.9470   85.6350    9.8976 O.3     1  UNL1       -0.4733
      9 C          60.5938   86.8388    9.0753 C.ar    1  UNL1        0.1415
     10 C          59.7158   86.4721    7.9157 C.ar    1  UNL1        0.0370
     11 C          59.2467   87.5333    6.9651 C.ar    1  UNL1        0.0031
     12 C          59.6556   88.9613    7.1741 C.ar    1  UNL1        0.0004
     13 C          60.5335   89.3281    8.3337 C.ar    1  UNL1        0.0061
     14 C          61.0026   88.2668    9.2843 C.ar    1  UNL1        0.0699
     15 C          59.1864   90.0226    6.2235 C.ar    1  UNL1        0.0031
     16 C          60.1856   90.8480    5.4683 C.ar    1  UNL1        0.0207
     17 C          59.7164   91.9092    4.5177 C.ar    1  UNL1        0.0989
     18 N          58.2480   92.1450    4.3222 N.ar    1  UNL1       -0.2423
     19 C          57.2488   91.3196    5.0774 C.ar    1  UNL1        0.0989
     20 C          57.7180   90.2584    6.0280 C.ar    1  UNL1        0.0207
     21 N          64.0941   88.8838   13.5448 N.pl3   1  UNL1       -0.2826
     22 H          64.4194   87.9732   13.7293 H       1  UNL1        0.1551
     23 C          65.9684   91.9340   15.2574 C.ar    1  UNL1        0.0726
     24 C          65.0409   92.2325   16.3979 C.ar    1  UNL1        0.0039
     25 C          63.7978   91.4146   16.5873 C.ar    1  UNL1        0.0012
     26 C          63.4822   90.2985   15.6363 C.ar    1  UNL1        0.0147
     27 C          64.4097   90.0000   14.4958 C.ar    1  UNL1        0.0504
     28 C          65.6528   90.8178   14.3064 C.ar    1  UNL1        0.0185
     29 F          68.4546   93.5697   14.8786 F       1  UNL1       -0.1659
     30 C          67.2116   92.7518   15.0680 C.3     1  UNL1        0.4186
     31 F          68.0372   91.6217   15.6073 F       1  UNL1       -0.1659
     32 F          66.3858   93.8820   14.5287 F       1  UNL1       -0.1659
@<TRIPOS>BOND
     1    29    30    1
     2    30    31    1
     3    30    32    1
     4    30    23    1
     5    23    24   ar
     6    24    25   ar
     7    25    26   ar
     8    26    27   ar
     9    27    21    1
    10    21     1    1
    11     1     2   ar
    12     2     3   ar
    13     3     4   ar
    14     4     5   ar
    15     5     6    1
    16     6     7    1
    17     7     8    1
    18     8     9    1
    19     9    10   ar
    20    10    11   ar
    21    11    12   ar
    22    12    15    1
    23    15    16   ar
    24    16    17   ar
    25    17    18   ar
    26    18    19   ar
    27    19    20   ar
    28    12    13   ar
    29    13    14   ar
    30    27    28   ar
    31    28    23   ar
    32     5     1   ar
    33    14     9   ar
    34    14     4    1
    35    20    15   ar
    36    21    22    1
@<TRIPOS>MOLECULE
*****
 32 36 0 0 0
SMALL
GASTEIGER

@<TRIPOS>ATOM
      1 C          63.8938   89.5316   14.6579 C.ar    1  UNL1        0.2224
      2 N          64.0956   88.2676   15.4399 N.ar    1  UNL1       -0.1127
      3 N          63.7551   87.1110   14.5476 N.ar    1  UNL1       -0.1273
      4 C          63.3428   87.6603   13.2140 C.ar    1  UNL1        0.1704
      5 N          63.4286   89.1562   13.2823 N.ar    1  UNL1       -0.2796
      6 C          63.1213   90.1604   12.2111 C.3     1  UNL1        0.1574
      7 C          62.6524   89.9166   10.8073 C.3     1  UNL1        0.2299
      8 O          62.3750   88.6084   10.1279 O.3     1  UNL1       -0.4733
      9 C          62.4979   87.2209   10.6844 C.ar    1  UNL1        0.1415
     10 C          62.1212   86.1864    9.6656 C.ar    1  UNL1        0.0370
     11 C          62.1752   84.7300   10.0203 C.ar    1  UNL1        0.0031
     12 C          62.6059   84.3080   11.3938 C.ar    1  UNL1        0.0004
     13 C          62.9826   85.3425   12.4126 C.ar    1  UNL1        0.0061
     14 C          62.9286   86.7989   12.0579 C.ar    1  UNL1        0.0699
     15 C          62.6599   82.8515   11.7485 C.ar    1  UNL1        0.0031
     16 C          62.3072   82.4039   13.1359 C.ar    1  UNL1        0.0207
     17 C          62.3612   80.9473   13.4906 C.ar    1  UNL1        0.0989
     18 N          62.7680   79.9385   12.4577 N.ar    1  UNL1       -0.2423
     19 C          63.1208   80.3862   11.0702 C.ar    1  UNL1        0.0989
     20 C          63.0667   81.8427   10.7156 C.ar    1  UNL1        0.0207
     21 N          64.1180   90.9261   15.1629 N.pl3   1  UNL1       -0.2826
     22 H          63.4055   91.3905   15.6589 H       1  UNL1        0.1551
     23 C          67.4080   92.1719   13.3261 C.ar    1  UNL1        0.0726
     24 C          68.0470   92.9871   14.4110 C.ar    1  UNL1        0.0039
     25 C          67.3763   93.1154   15.7466 C.ar    1  UNL1        0.0012
     26 C          66.0666   92.4284   15.9972 C.ar    1  UNL1        0.0147
     27 C          65.4276   91.6131   14.9123 C.ar    1  UNL1        0.0504
     28 C          66.0983   91.4849   13.5767 C.ar    1  UNL1        0.0185
     29 F          68.7493   91.9154   10.6549 F       1  UNL1       -0.1659
     30 C          68.0787   92.0436   11.9905 C.3     1  UNL1        0.4186
     31 F          69.1559   91.2050   12.6120 F       1  UNL1       -0.1659
     32 F          67.0014   92.8822   11.3691 F       1  UNL1       -0.1659
@<TRIPOS>BOND
     1    29    30    1
     2    30    31    1
     3    30    32    1
     4    30    23    1
     5    23    24   ar
     6    24    25   ar
     7    25    26   ar
     8    26    27   ar
     9    27    21    1
    10    21     1    1
    11     1     2   ar
    12     2     3   ar
    13     3     4   ar
    14     4     5   ar
    15     5     6    1
    16     6     7    1
    17     7     8    1
    18     8     9    1
    19     9    10   ar
    20    10    11   ar
    21    11    12   ar
    22    12    15    1
    23    15    16   ar
    24    16    17   ar
    25    17    18   ar
    26    18    19   ar
    27    19    20   ar
    28    12    13   ar
    29    13    14   ar
    30    27    28   ar
    31    28    23   ar
    32     5     1   ar
    33    14     9   ar
    34    14     4    1
    35    20    15   ar
    36    21    22    1
@<TRIPOS>MOLECULE
*****
 32 36 0 0 0
SMALL
GASTEIGER

@<TRIPOS>ATOM
      1 C          63.4835   89.8004   12.3820 C.ar    1  UNL1        0.2224
      2 N          63.1941   91.0708   11.6388 N.ar    1  UNL1       -0.1127
      3 N          62.2914   90.7390   10.4877 N.ar    1  UNL1       -0.1273
      4 C          62.0228   89.2636   10.5196 C.ar    1  UNL1        0.1704
      5 N          62.7596   88.6836   11.6904 N.ar    1  UNL1       -0.2796
      6 C          62.8110   87.2563   12.1491 C.3     1  UNL1        0.1574
      7 C          62.1383   86.0567   11.5503 C.3     1  UNL1        0.2299
      8 O          61.2481   85.9881   10.3450 O.3     1  UNL1       -0.4733
      9 C          60.8107   87.1020    9.4407 C.ar    1  UNL1        0.1415
     10 C          59.9157   86.6003    8.3465 C.ar    1  UNL1        0.0370
     11 C          59.3655   87.5563    7.3301 C.ar    1  UNL1        0.0031
     12 C          59.7103   89.0141    7.4078 C.ar    1  UNL1        0.0004
     13 C          60.6053   89.5158    8.5019 C.ar    1  UNL1        0.0061
     14 C          61.1555   88.5598    9.5184 C.ar    1  UNL1        0.0699
     15 C          59.1600   89.9701    6.3912 C.ar    1  UNL1        0.0031
     16 C          60.0927   90.8045    5.5643 C.ar    1  UNL1        0.0207
     17 C          59.5425   91.7605    4.5477 C.ar    1  UNL1        0.0989
     18 N          58.0595   91.8822    4.3582 N.ar    1  UNL1       -0.2423
     19 C          57.1267   91.0478    5.1852 C.ar    1  UNL1        0.0989
     20 C          57.6770   90.0918    6.2017 C.ar    1  UNL1        0.0207
     21 N          64.3455   89.6699   13.6027 N.pl3   1  UNL1       -0.2826
     22 H          65.1626   90.2122   13.6886 H       1  UNL1        0.1551
     23 C          63.8486   86.2893   15.6212 C.ar    1  UNL1        0.0726
     24 C          63.1964   86.7992   16.8721 C.ar    1  UNL1        0.0039
     25 C          62.9273   88.2661   17.0331 C.ar    1  UNL1        0.0012
     26 C          63.3103   89.2229   15.9434 C.ar    1  UNL1        0.0147
     27 C          63.9624   88.7130   14.6925 C.ar    1  UNL1        0.0504
     28 C          64.2316   87.2461   14.5315 C.ar    1  UNL1        0.0185
     29 F          64.3868   83.3556   15.2992 F       1  UNL1       -0.1659
     30 C          64.1177   84.8224   15.4602 C.3     1  UNL1        0.4186
     31 F          65.4326   85.1351   14.8097 F       1  UNL1       -0.1659
     32 F          62.8027   84.5098   16.1107 F       1  UNL1       -0.1659
@<TRIPOS>BOND
     1    29    30    1
     2    30    31    1
     3    30    32    1
     4    30    23    1
     5    23    24   ar
     6    24    25   ar
     7    25    26   ar
     8    26    27   ar
     9    27    21    1
    10    21     1    1
    11     1     2   ar
    12     2     3   ar
    13     3     4   ar
    14     4     5   ar
    15     5     6    1
    16     6     7    1
    17     7     8    1
    18     8     9    1
    19     9    10   ar
    20    10    11   ar
    21    11    12   ar
    22    12    15    1
    23    15    16   ar
    24    16    17   ar
    25    17    18   ar
    26    18    19   ar
    27    19    20   ar
    28    12    13   ar
    29    13    14   ar
    30    27    28   ar
    31    28    23   ar
    32     5     1   ar
    33    14     9   ar
    34    14     4    1
    35    20    15   ar
    36    21    22    1
@<TRIPOS>MOLECULE
*****
 32 36 0 0 0
SMALL
GASTEIGER

@<TRIPOS>ATOM
      1 C          63.7263   89.5607   14.1309 C.ar    1  UNL1        0.2224
      2 N          63.9458   88.3864   15.0380 N.ar    1  UNL1       -0.1127
      3 N          63.6269   87.1395   14.2676 N.ar    1  UNL1       -0.1273
      4 C          63.2103   87.5432   12.8842 C.ar    1  UNL1        0.1704
      5 N          63.2717   89.0396   12.7999 N.ar    1  UNL1       -0.2796
      6 C          62.9519   89.9242   11.6314 C.3     1  UNL1        0.1574
      7 C          62.4918   89.5311   10.2589 C.3     1  UNL1        0.2299
      8 O          62.2377   88.1561    9.7159 O.3     1  UNL1       -0.4733
      9 C          62.3811   86.8347   10.4112 C.ar    1  UNL1        0.1415
     10 C          62.0246   85.6958    9.5025 C.ar    1  UNL1        0.0370
     11 C          62.1009   84.2842   10.0038 C.ar    1  UNL1        0.0031
     12 C          62.5338   84.0114   11.4139 C.ar    1  UNL1        0.0004
     13 C          62.8903   85.1503   12.3226 C.ar    1  UNL1        0.0061
     14 C          62.8140   86.5619   11.8212 C.ar    1  UNL1        0.0699
     15 C          62.6101   82.5997   11.9152 C.ar    1  UNL1        0.0031
     16 C          62.9445   81.4848   10.9690 C.ar    1  UNL1        0.0207
     17 C          63.0208   80.0731   11.4704 C.ar    1  UNL1        0.0989
     18 N          62.7627   79.7763   12.9179 N.ar    1  UNL1       -0.2423
     19 C          62.4282   80.8912   13.8640 C.ar    1  UNL1        0.0989
     20 C          62.3519   82.3028   13.3627 C.ar    1  UNL1        0.0207
     21 N          63.9262   91.0029   14.4916 N.pl3   1  UNL1       -0.2826
     22 H          63.2149   91.4962   14.9606 H       1  UNL1        0.1551
     23 C          67.6189   92.4289   14.7745 C.ar    1  UNL1        0.0726
     24 C          67.7772   93.0748   13.4299 C.ar    1  UNL1        0.0039
     25 C          66.6517   93.0300   12.4393 C.ar    1  UNL1        0.0012
     26 C          65.3681   92.3394   12.7931 C.ar    1  UNL1        0.0147
     27 C          65.2098   91.6935   14.1377 C.ar    1  UNL1        0.0504
     28 C          66.3353   91.7383   15.1283 C.ar    1  UNL1        0.0185
     29 F          69.8699   92.5184   16.7557 F       1  UNL1       -0.1659
     30 C          68.7444   92.4736   15.7651 C.3     1  UNL1        0.4186
     31 F          67.7599   92.3444   16.8894 F       1  UNL1       -0.1659
     32 F          69.7289   92.6029   14.6407 F       1  UNL1       -0.1659
@<TRIPOS>BOND
     1    29    30    1
     2    30    31    1
     3    30    32    1
     4    30    23    1
     5    23    24   ar
     6    24    25   ar
     7    25    26   ar
     8    26    27   ar
     9    27    21    1
    10    21     1    1
    11     1     2   ar
    12     2     3   ar
    13     3     4   ar
    14     4     5   ar
    15     5     6    1
    16     6     7    1
    17     7     8    1
    18     8     9    1
    19     9    10   ar
    20    10    11   ar
    21    11    12   ar
    22    12    15    1
    23    15    16   ar
    24    16    17   ar
    25    17    18   ar
    26    18    19   ar
    27    19    20   ar
    28    12    13   ar
    29    13    14   ar
    30    27    28   ar
    31    28    23   ar
    32     5     1   ar
    33    14     9   ar
    34    14     4    1
    35    20    15   ar
    36    21    22    1
@<TRIPOS>MOLECULE
*****
 32 36 0 0 0
SMALL
GASTEIGER

@<TRIPOS>ATOM
      1 C          62.7682   89.3498   11.4513 C.ar    1  UNL1        0.2224
      2 N          62.3625   88.3680   10.3923 N.ar    1  UNL1       -0.1127
      3 N          62.5813   86.9861   10.9331 N.ar    1  UNL1       -0.1273
      4 C          63.1222   87.1138   12.3264 C.ar    1  UNL1        0.1704
      5 N          63.2377   88.5747   12.6465 N.ar    1  UNL1       -0.2796
      6 C          63.7251   89.2194   13.9102 C.3     1  UNL1        0.1574
      7 C          64.2172   88.5625   15.1658 C.3     1  UNL1        0.2299
      8 O          64.3436   87.0987   15.4676 O.3     1  UNL1       -0.4733
      9 C          64.0090   85.9301   14.5887 C.ar    1  UNL1        0.1415
     10 C          64.2857   84.6278   15.2795 C.ar    1  UNL1        0.0370
     11 C          64.0187   83.3322   14.5724 C.ar    1  UNL1        0.0031
     12 C          63.4751   83.3389   13.1744 C.ar    1  UNL1        0.0004
     13 C          63.1985   84.6413   12.4835 C.ar    1  UNL1        0.0061
     14 C          63.4655   85.9369   13.1906 C.ar    1  UNL1        0.0699
     15 C          63.2081   82.0432   12.4672 C.ar    1  UNL1        0.0031
     16 C          62.7333   80.8499   13.2420 C.ar    1  UNL1        0.0207
     17 C          62.4664   79.5542   12.5349 C.ar    1  UNL1        0.0989
     18 N          62.6742   79.4519   11.0529 N.ar    1  UNL1       -0.2423
     19 C          63.1491   80.6454   10.2780 C.ar    1  UNL1        0.0989
     20 C          63.4160   81.9410   10.9852 C.ar    1  UNL1        0.0207
     21 N          62.7139   90.8443   11.3353 N.pl3   1  UNL1       -0.2826
     22 H          61.8588   91.2923   11.1423 H       1  UNL1        0.1551
     23 C          65.8085   92.6355   13.0573 C.ar    1  UNL1        0.0726
     24 C          66.4597   93.2801   11.8697 C.ar    1  UNL1        0.0039
     25 C          65.8623   93.1129   10.5040 C.ar    1  UNL1        0.0012
     26 C          64.6137   92.3009   10.3259 C.ar    1  UNL1        0.0147
     27 C          63.9625   91.6562   11.5134 C.ar    1  UNL1        0.0504
     28 C          64.5599   91.8235   12.8791 C.ar    1  UNL1        0.0185
     29 F          67.0033   92.9701   15.7886 F       1  UNL1       -0.1659
     30 C          66.4059   92.8027   14.4230 C.3     1  UNL1        0.4186
     31 F          66.3959   91.3145   14.6097 F       1  UNL1       -0.1659
     32 F          66.4159   94.2911   14.2362 F       1  UNL1       -0.1659
@<TRIPOS>BOND
     1    29    30    1
     2    30    31    1
     3    30    32    1
     4    30    23    1
     5    23    24   ar
     6    24    25   ar
     7    25    26   ar
     8    26    27   ar
     9    27    21    1
    10    21     1    1
    11     1     2   ar
    12     2     3   ar
    13     3     4   ar
    14     4     5   ar
    15     5     6    1
    16     6     7    1
    17     7     8    1
    18     8     9    1
    19     9    10   ar
    20    10    11   ar
    21    11    12   ar
    22    12    15    1
    23    15    16   ar
    24    16    17   ar
    25    17    18   ar
    26    18    19   ar
    27    19    20   ar
    28    12    13   ar
    29    13    14   ar
    30    27    28   ar
    31    28    23   ar
    32     5     1   ar
    33    14     9   ar
    34    14     4    1
    35    20    15   ar
    36    21    22    1
@<TRIPOS>MOLECULE
*****
 32 36 0 0 0
SMALL
GASTEIGER

@<TRIPOS>ATOM
      1 C          63.3196   85.2293   14.8947 C.ar    1  UNL1        0.2224
      2 N          64.2168   86.1240   15.6974 N.ar    1  UNL1       -0.1127
      3 N          64.3589   87.4216   14.9584 N.ar    1  UNL1       -0.1273
      4 C          63.5495   87.3288   13.6990 C.ar    1  UNL1        0.1704
      5 N          62.9072   85.9738   13.6596 N.ar    1  UNL1       -0.2796
      6 C          62.0044   85.3969   12.6097 C.3     1  UNL1        0.1574
      7 C          61.5211   86.0325   11.3398 C.3     1  UNL1        0.2299
      8 O          61.8211   87.4019   10.8064 O.3     1  UNL1       -0.4733
      9 C          62.6786   88.4741   11.4109 C.ar    1  UNL1        0.1415
     10 C          62.7125   89.7003   10.5477 C.ar    1  UNL1        0.0370
     11 C          63.5156   90.8940   10.9719 C.ar    1  UNL1        0.0031
     12 C          64.2848   90.8615   12.2593 C.ar    1  UNL1        0.0004
     13 C          64.2509   89.6352   13.1224 C.ar    1  UNL1        0.0061
     14 C          63.4478   88.4415   12.6982 C.ar    1  UNL1        0.0699
     15 C          65.0880   92.0553   12.6835 C.ar    1  UNL1        0.0031
     16 C          65.3689   93.1565   11.7045 C.ar    1  UNL1        0.0207
     17 C          66.1721   94.3503   12.1287 C.ar    1  UNL1        0.0989
     18 N          66.6942   94.4428   13.5319 N.ar    1  UNL1       -0.2423
     19 C          66.4132   93.3415   14.5108 C.ar    1  UNL1        0.0989
     20 C          65.6101   92.1478   14.0866 C.ar    1  UNL1        0.0207
     21 N          62.9072   83.8347   15.2625 N.pl3   1  UNL1       -0.2826
     22 H          62.6840   83.6176   16.1965 H       1  UNL1        0.1551
     23 C          63.4597   81.9052   11.8389 C.ar    1  UNL1        0.0726
     24 C          62.6903   80.6437   12.0971 C.ar    1  UNL1        0.0039
     25 C          61.9932   80.4459   13.4105 C.ar    1  UNL1        0.0012
     26 C          62.0655   81.5096   14.4656 C.ar    1  UNL1        0.0147
     27 C          62.8349   82.7711   14.2074 C.ar    1  UNL1        0.0504
     28 C          63.5320   82.9688   12.8940 C.ar    1  UNL1        0.0185
     29 F          64.8540   82.3008    9.2122 F       1  UNL1       -0.1659
     30 C          64.1569   82.1029   10.5255 C.3     1  UNL1        0.4186
     31 F          63.3924   80.9498    9.9461 F       1  UNL1       -0.1659
     32 F          64.9213   83.2561   11.1050 F       1  UNL1       -0.1659
@<TRIPOS>BOND
     1    29    30    1
     2    30    31    1
     3    30    32    1
     4    30    23    1
     5    23    24   ar
     6    24    25   ar
     7    25    26   ar
     8    26    27   ar
     9    27    21    1
    10    21     1    1
    11     1     2   ar
    12     2     3   ar
    13     3     4   ar
    14     4     5   ar
    15     5     6    1
    16     6     7    1
    17     7     8    1
    18     8     9    1
    19     9    10   ar
    20    10    11   ar
    21    11    12   ar
    22    12    15    1
    23    15    16   ar
    24    16    17   ar
    25    17    18   ar
    26    18    19   ar
    27    19    20   ar
    28    12    13   ar
    29    13    14   ar
    30    27    28   ar
    31    28    23   ar
    32     5     1   ar
    33    14     9   ar
    34    14     4    1
    35    20    15   ar
    36    21    22    1
@<TRIPOS>MOLECULE
*****
 32 36 0 0 0
SMALL
GASTEIGER

@<TRIPOS>ATOM
      1 C          63.1382   85.0324   13.5317 C.ar    1  UNL1        0.2224
      2 N          64.0875   85.4807   14.6031 N.ar    1  UNL1       -0.1127
      3 N          64.3445   86.9460   14.4114 N.ar    1  UNL1       -0.1273
      4 C          63.5539   87.4034   13.2214 C.ar    1  UNL1        0.1704
      5 N          62.8085   86.2206   12.6778 N.ar    1  UNL1       -0.2796
      6 C          61.8832   86.1597   11.4988 C.3     1  UNL1        0.1574
      7 C          61.4749   87.2663   10.5721 C.3     1  UNL1        0.2299
      8 O          61.8910   88.7073   10.5957 O.3     1  UNL1       -0.4733
      9 C          62.8182   89.3975   11.5517 C.ar    1  UNL1        0.1415
     10 C          62.9641   90.8529   11.2194 C.ar    1  UNL1        0.0370
     11 C          63.8500   91.7280   12.0555 C.ar    1  UNL1        0.0031
     12 C          64.5901   91.1477   13.2241 C.ar    1  UNL1        0.0004
     13 C          64.4442   89.6923   13.5565 C.ar    1  UNL1        0.0061
     14 C          63.5583   88.8172   12.7203 C.ar    1  UNL1        0.0699
     15 C          65.4761   92.0229   14.0603 C.ar    1  UNL1        0.0031
     16 C          66.2445   93.1413   13.4211 C.ar    1  UNL1        0.0207
     17 C          67.1305   94.0164   14.2573 C.ar    1  UNL1        0.0989
     18 N          67.2480   93.7731   15.7327 N.ar    1  UNL1       -0.2423
     19 C          66.4796   92.6546   16.3720 C.ar    1  UNL1        0.0989
     20 C          65.5936   91.7795   15.5358 C.ar    1  UNL1        0.0207
     21 N          62.6112   83.6402   13.3468 N.pl3   1  UNL1       -0.2826
     22 H          61.9883   83.2581   14.0064 H       1  UNL1        0.1551
     23 C          63.0723   80.5736   10.8704 C.ar    1  UNL1        0.0726
     24 C          63.8777   81.2107    9.7771 C.ar    1  UNL1        0.0039
     25 C          64.2610   82.6577    9.8737 C.ar    1  UNL1        0.0012
     26 C          63.8388   83.4675   11.0636 C.ar    1  UNL1        0.0147
     27 C          63.0334   82.8304   12.1569 C.ar    1  UNL1        0.0504
     28 C          62.6501   81.3834   12.0603 C.ar    1  UNL1        0.0185
     29 F          62.3058   77.6796   10.6770 F       1  UNL1       -0.1659
     30 C          62.6890   79.1265   10.7738 C.3     1  UNL1        0.4186
     31 F          62.4242   79.0981   12.2499 F       1  UNL1       -0.1659
     32 F          62.9539   79.1551    9.2976 F       1  UNL1       -0.1659
@<TRIPOS>BOND
     1    29    30    1
     2    30    31    1
     3    30    32    1
     4    30    23    1
     5    23    24   ar
     6    24    25   ar
     7    25    26   ar
     8    26    27   ar
     9    27    21    1
    10    21     1    1
    11     1     2   ar
    12     2     3   ar
    13     3     4   ar
    14     4     5   ar
    15     5     6    1
    16     6     7    1
    17     7     8    1
    18     8     9    1
    19     9    10   ar
    20    10    11   ar
    21    11    12   ar
    22    12    15    1
    23    15    16   ar
    24    16    17   ar
    25    17    18   ar
    26    18    19   ar
    27    19    20   ar
    28    12    13   ar
    29    13    14   ar
    30    27    28   ar
    31    28    23   ar
    32     5     1   ar
    33    14     9   ar
    34    14     4    1
    35    20    15   ar
    36    21    22    1
