@<TRIPOS>MOLECULE
*****
 49 55 0 0 0
SMALL
GASTEIGER

@<TRIPOS>ATOM
      1 C          61.1282   86.6221    9.1950 C.3     1  UNL1        0.0194
      2 C          61.1978   88.0562    9.6289 C.3     1  UNL1        0.0041
      3 C          60.3726   89.0932    8.9263 C.3     1  UNL1        0.0008
      4 C          59.4777   88.6960    7.7899 C.3     1  UNL1        0.0000
      5 C          59.4082   87.2618    7.3560 C.3     1  UNL1        0.0008
      6 C          61.5359   87.3961    9.8587 C.3     1  UNL1        0.0086
      7 C          62.0927   88.4535   10.7653 C.3     1  UNL1        0.0694
      8 C          61.2674   89.4904   10.0627 C.3     1  UNL1        0.0086
      9 C          62.0231   87.0193   10.3314 C.3     1  UNL1        0.0127
     10 C          60.2334   86.2249    8.0586 C.3     1  UNL1        0.0041
     11 C          62.9875   88.8507   11.9018 C.2     1  UNL1        0.2248
     12 O          63.1390   87.9460   13.0886 O.2     1  UNL1       -0.2749
     13 N          63.7308   90.1525   11.8514 N.am    1  UNL1       -0.2767
     14 C          64.6256   90.5497   12.9878 C.3     1  UNL1        0.1107
     15 C          65.3690   91.8517   12.9374 C.3     1  UNL1        0.0942
     16 N          65.2174   92.7564   11.7506 N.3     1  UNL1       -0.2660
     17 C          64.3226   92.3591   10.6141 C.3     1  UNL1        0.0942
     18 C          63.5793   91.0573   10.6645 C.3     1  UNL1        0.1107
     19 C          65.9607   94.0583   11.7002 C.3     1  UNL1        0.0992
     20 C          66.1602   94.7577   10.3883 C.ar    1  UNL1       -0.0059
     21 C          65.5382   96.1023   10.1530 C.ar    1  UNL1        0.0002
     22 C          65.7377   96.8017    8.8411 C.ar    1  UNL1        0.0366
     23 C          66.5592   96.1565    7.7645 C.ar    1  UNL1        0.1387
     24 C          67.1811   94.8120    7.9998 C.ar    1  UNL1        0.0366
     25 C          66.9816   94.1126    9.3117 C.ar    1  UNL1        0.0002
     26 O          66.7587   96.8559    6.4526 O.3     1  UNL1       -0.4714
     27 C          65.7083   96.7629    5.3858 C.3     1  UNL1        0.2525
     28 C          63.6040   83.5110   11.3027 C.ar    1  UNL1        0.1393
     29 C          62.4979   84.2117   12.0347 C.ar    1  UNL1        0.0366
     30 C          61.6727   85.2487   11.3321 C.ar    1  UNL1       -0.0012
     31 C          61.9535   85.5850    9.8976 C.ar    1  UNL1       -0.0226
     32 C          63.0595   84.8844    9.1656 C.ar    1  UNL1       -0.0012
     33 C          63.8848   83.8474    9.8682 C.ar    1  UNL1        0.0366
     34 O          64.4292   82.4740   12.0053 O.3     1  UNL1       -0.4656
     35 C          65.0623   82.7892   13.3281 C.3     1  UNL1        0.2897
     36 N          64.8410   85.0146   14.6505 N.am    1  UNL1       -0.2809
     37 C          64.3333   83.6414   14.3244 C.2     1  UNL1        0.2707
     38 O          63.0966   83.1202   14.9945 O.2     1  UNL1       -0.2707
     39 H          65.6527   85.3567   14.2107 H       1  UNL1        0.1550
     40 C          63.2287   88.1909   16.4003 C.ar    1  UNL1        0.0769
     41 C          62.6541   87.5708   17.6394 C.ar    1  UNL1        0.0065
     42 C          62.8085   86.0987   17.8822 C.ar    1  UNL1        0.0015
     43 C          63.5374   85.2466   16.8859 C.ar    1  UNL1        0.0147
     44 C          64.1121   85.8667   15.6468 C.ar    1  UNL1        0.0506
     45 C          63.9577   87.3388   15.4040 C.ar    1  UNL1        0.0211
     46 C          63.0743   89.6631   16.1575 C.2     1  UNL1        0.3414
     47 O          62.2559   90.1503   14.9986 O.2     1  UNL1       -0.2449
     48 C          64.4935   91.8116   16.5031 C.3     1  UNL1        0.2560
     49 O          63.7382   90.6479   17.0735 O.3     1  UNL1       -0.4413
@<TRIPOS>BOND
     1    48    49    1
     2    49    46    1
     3    46    47    2
     4    46    40    1
     5    40    41   ar
     6    41    42   ar
     7    42    43   ar
     8    43    44   ar
     9    44    36    1
    10    36    37   am
    11    37    38    2
    12    37    35    1
    13    35    34    1
    14    34    28    1
    15    28    29   ar
    16    29    30   ar
    17    30    31   ar
    18    31     1    1
    19     1     2    1
    20     2     3    1
    21     3     4    1
    22     4     5    1
    23     5     6    1
    24     6     7    1
    25     7    11    1
    26    11    12    2
    27    11    13   am
    28    13    14    1
    29    14    15    1
    30    15    16    1
    31    16    19    1
    32    19    20    1
    33    20    21   ar
    34    21    22   ar
    35    22    23   ar
    36    23    26    1
    37    26    27    1
    38    23    24   ar
    39    24    25   ar
    40    16    17    1
    41    17    18    1
    42     7     8    1
    43     7     9    1
    44     5    10    1
    45    31    32   ar
    46    32    33   ar
    47    44    45   ar
    48    45    40   ar
    49    33    28   ar
    50     9     1    1
    51    10     1    1
    52     8     3    1
    53    18    13    1
    54    25    20   ar
    55    36    39    1
