@<TRIPOS>MOLECULE
*****
 26 28 0 0 0
SMALL
GASTEIGER

@<TRIPOS>ATOM
      1 C          62.2911   88.1466   11.8384 C.2     1  UNL1        0.2461
      2 O          60.8362   88.2382   11.4849 O.2     1  UNL1       -0.2701
      3 N          62.9346   86.8045   12.0241 N.am    1  UNL1       -0.2967
      4 H          63.8895   86.7443   12.2562 H       1  UNL1        0.1501
      5 N          66.9322   93.6107   15.0362 N.pl3   1  UNL1       -0.3375
      6 C          66.0457   92.7404   14.1956 C.ar    1  UNL1        0.1567
      7 N          65.5948   93.0327   12.7951 N.ar    1  UNL1       -0.2245
      8 C          64.7248   91.8980   12.3418 C.ar    1  UNL1        0.0892
      9 C          64.0005   91.6412   11.0537 C.ar    1  UNL1        0.0198
     10 C          63.1892   90.3907   10.8859 C.ar    1  UNL1        0.0061
     11 C          63.1023   89.3971   12.0063 C.ar    1  UNL1        0.0540
     12 C          63.8267   89.6539   13.2944 C.ar    1  UNL1        0.0126
     13 C          64.6379   90.9044   13.4622 C.ar    1  UNL1        0.0498
     14 S          65.4542   91.4251   14.6078 S.2     1  UNL1       -0.0520
     15 H          67.2726   94.4611   14.6752 H       1  UNL1        0.1442
     16 H          67.1738   93.3315   15.9489 H       1  UNL1        0.1442
     17 C          62.1234   85.5539   11.8563 C.3     1  UNL1        0.1227
     18 C          62.7130   84.2231   12.2184 C.ar    1  UNL1        0.0668
     19 C          62.9056   83.1757   11.1621 C.ar    1  UNL1        0.0035
     20 C          63.4953   81.8449   11.5243 C.ar    1  UNL1        0.0001
     21 C          63.8924   81.5615   12.9428 C.ar    1  UNL1        0.0063
     22 C          63.6998   82.6089   13.9991 C.ar    1  UNL1        0.0750
     23 C          63.1101   83.9398   13.6369 C.ar    1  UNL1        0.2876
     24 N          62.9175   84.9872   14.6931 N.pl3   1  UNL1        0.0806
     25 O          63.8771   86.1356   14.7944 O.2     1  UNL1        0.0415
     26 O          61.7652   84.8862   15.6482 O.co2   1  UNL1       -0.5760
@<TRIPOS>UNITY_ATOM_ATTR
24 1
charge 1
26 1
charge -1
@<TRIPOS>BOND
     1     5     6    1
     2     6     7   ar
     3     7     8   ar
     4     8     9   ar
     5     9    10   ar
     6    10    11   ar
     7    11     1    1
     8     1     2    2
     9     1     3   am
    10     3    17    1
    11    17    18    1
    12    18    19   ar
    13    19    20   ar
    14    20    21   ar
    15    21    22   ar
    16    22    23   ar
    17    23    24    1
    18    24    25    2
    19    24    26    1
    20    11    12   ar
    21    12    13   ar
    22    13    14   ar
    23    14     6   ar
    24    13     8   ar
    25    23    18   ar
    26     5    15    1
    27     5    16    1
    28     3     4    1
@<TRIPOS>MOLECULE
*****
 26 28 0 0 0
SMALL
GASTEIGER

@<TRIPOS>ATOM
      1 C          62.2349   87.4655   11.1134 C.2     1  UNL1        0.2461
      2 O          61.3946   87.9716    9.9786 O.2     1  UNL1       -0.2701
      3 N          62.7775   88.4248   12.1308 N.am    1  UNL1       -0.2967
      4 H          63.3290   88.0926   12.8756 H       1  UNL1        0.1501
      5 N          63.3069   80.3335   14.2130 N.pl3   1  UNL1       -0.3375
      6 C          63.1669   81.5673   13.3716 C.ar    1  UNL1        0.1567
      7 N          63.3700   81.6503   11.8877 N.ar    1  UNL1       -0.2245
      8 C          63.1278   83.0691   11.4653 C.ar    1  UNL1        0.0892
      9 C          63.1829   83.7406   10.1252 C.ar    1  UNL1        0.0198
     10 C          62.8853   85.2061   10.0079 C.ar    1  UNL1        0.0061
     11 C          62.5325   86.0000   11.2307 C.ar    1  UNL1        0.0540
     12 C          62.4774   85.3284   12.5708 C.ar    1  UNL1        0.0126
     13 C          62.7750   83.8630   12.6881 C.ar    1  UNL1        0.0498
     14 S          62.7992   82.9348   13.8662 S.2     1  UNL1       -0.0520
     15 H          63.5534   79.4773   13.7941 H       1  UNL1        0.1442
     16 H          63.1523   80.3798   15.1842 H       1  UNL1        0.1442
     17 C          62.4798   89.8904   12.0134 C.3     1  UNL1        0.1227
     18 C          63.6039   90.8822   11.9622 C.ar    1  UNL1        0.0668
     19 C          63.9285   91.5821   10.6758 C.ar    1  UNL1        0.0035
     20 C          65.0526   92.5740   10.6245 C.ar    1  UNL1        0.0001
     21 C          65.8521   92.8660   11.8597 C.ar    1  UNL1        0.0063
     22 C          65.5275   92.1661   13.1461 C.ar    1  UNL1        0.0750
     23 C          64.4033   91.1742   13.1973 C.ar    1  UNL1        0.2876
     24 N          64.0787   90.4743   14.4837 N.pl3   1  UNL1        0.0806
     25 O          64.4207   89.0240   14.6555 O.2     1  UNL1        0.0415
     26 O          63.4120   91.2248   15.5983 O.co2   1  UNL1       -0.5760
@<TRIPOS>UNITY_ATOM_ATTR
24 1
charge 1
26 1
charge -1
@<TRIPOS>BOND
     1     5     6    1
     2     6     7   ar
     3     7     8   ar
     4     8     9   ar
     5     9    10   ar
     6    10    11   ar
     7    11     1    1
     8     1     2    2
     9     1     3   am
    10     3    17    1
    11    17    18    1
    12    18    19   ar
    13    19    20   ar
    14    20    21   ar
    15    21    22   ar
    16    22    23   ar
    17    23    24    1
    18    24    25    2
    19    24    26    1
    20    11    12   ar
    21    12    13   ar
    22    13    14   ar
    23    14     6   ar
    24    13     8   ar
    25    23    18   ar
    26     5    15    1
    27     5    16    1
    28     3     4    1
@<TRIPOS>MOLECULE
*****
 26 28 0 0 0
SMALL
GASTEIGER

@<TRIPOS>ATOM
      1 C          62.2478   89.5533   10.7684 C.2     1  UNL1        0.2461
      2 O          61.5568   90.0347    9.5272 O.2     1  UNL1       -0.2701
      3 N          61.9712   88.1762   11.2948 N.am    1  UNL1       -0.2967
      4 H          62.4248   87.8603   12.1095 H       1  UNL1        0.1501
      5 N          66.4976   92.8113   16.5085 N.pl3   1  UNL1       -0.3375
      6 C          65.8179   92.3807   15.2426 C.ar    1  UNL1        0.1567
      7 N          66.0315   92.9735   13.8814 N.ar    1  UNL1       -0.2245
      8 C          65.1508   92.2408   12.9132 C.ar    1  UNL1        0.0892
      9 C          64.9412   92.3907   11.4355 C.ar    1  UNL1        0.0198
     10 C          63.9735   91.4949   10.7206 C.ar    1  UNL1        0.0061
     11 C          63.2155   90.4492   11.4834 C.ar    1  UNL1        0.0540
     12 C          63.4252   90.2992   12.9611 C.ar    1  UNL1        0.0126
     13 C          64.3928   91.1951   13.6759 C.ar    1  UNL1        0.0498
     14 S          64.8051   91.2815   15.1156 S.2     1  UNL1       -0.0520
     15 H          67.1515   93.5470   16.4903 H       1  UNL1        0.1442
     16 H          66.2898   92.3582   17.3575 H       1  UNL1        0.1442
     17 C          61.0035   87.2804   10.5798 C.3     1  UNL1        0.1227
     18 C          61.4800   86.4037    9.4598 C.ar    1  UNL1        0.0668
     19 C          62.6988   85.5488    9.6431 C.ar    1  UNL1        0.0035
     20 C          63.1753   84.6721    8.5231 C.ar    1  UNL1        0.0001
     21 C          62.4329   84.6503    7.2198 C.ar    1  UNL1        0.0063
     22 C          61.2141   85.5053    7.0366 C.ar    1  UNL1        0.0750
     23 C          60.7376   86.3820    8.1566 C.ar    1  UNL1        0.2876
     24 N          59.5188   87.2369    7.9734 N.pl3   1  UNL1        0.0806
     25 O          58.1526   86.6243    8.0630 O.2     1  UNL1        0.0415
     26 O          59.6663   88.7046    7.7005 O.co2   1  UNL1       -0.5760
@<TRIPOS>UNITY_ATOM_ATTR
24 1
charge 1
26 1
charge -1
@<TRIPOS>BOND
     1     5     6    1
     2     6     7   ar
     3     7     8   ar
     4     8     9   ar
     5     9    10   ar
     6    10    11   ar
     7    11     1    1
     8     1     2    2
     9     1     3   am
    10     3    17    1
    11    17    18    1
    12    18    19   ar
    13    19    20   ar
    14    20    21   ar
    15    21    22   ar
    16    22    23   ar
    17    23    24    1
    18    24    25    2
    19    24    26    1
    20    11    12   ar
    21    12    13   ar
    22    13    14   ar
    23    14     6   ar
    24    13     8   ar
    25    23    18   ar
    26     5    15    1
    27     5    16    1
    28     3     4    1
@<TRIPOS>MOLECULE
*****
 26 28 0 0 0
SMALL
GASTEIGER

@<TRIPOS>ATOM
      1 C          62.9059   89.8864   11.1844 C.2     1  UNL1        0.2461
      2 O          62.0881   90.1585    9.9567 O.2     1  UNL1       -0.2701
      3 N          62.7563   88.5831   11.9116 N.am    1  UNL1       -0.2967
      4 H          63.2930   88.4045   12.7173 H       1  UNL1        0.1501
      5 N          67.6890   93.8788   15.9600 N.pl3   1  UNL1       -0.3375
      6 C          66.8525   93.3120   14.8514 C.ar    1  UNL1        0.1567
      7 N          66.7540   93.8534   13.4560 N.ar    1  UNL1       -0.2245
      8 C          65.8082   92.9804   12.6857 C.ar    1  UNL1        0.0892
      9 C          65.3268   93.0301   11.2659 C.ar    1  UNL1        0.0198
     10 C          64.3594   91.9987   10.7655 C.ar    1  UNL1        0.0061
     11 C          63.8734   90.9177   11.6849 C.ar    1  UNL1        0.0540
     12 C          64.3548   90.8680   13.1046 C.ar    1  UNL1        0.0126
     13 C          65.3222   91.8993   13.6050 C.ar    1  UNL1        0.0498
     14 S          65.9676   92.1043   14.9435 S.2     1  UNL1       -0.0520
     15 H          68.2398   94.6792   15.8013 H       1  UNL1        0.1442
     16 H          67.6872   93.4503   16.8464 H       1  UNL1        0.1442
     17 C          61.7888   87.5517   11.4111 C.3     1  UNL1        0.1227
     18 C          62.2810   86.3988   10.5874 C.ar    1  UNL1        0.0668
     19 C          62.2029   86.4590    9.0907 C.ar    1  UNL1        0.0035
     20 C          62.6951   85.3061    8.2670 C.ar    1  UNL1        0.0001
     21 C          63.2656   84.0929    8.9401 C.ar    1  UNL1        0.0063
     22 C          63.3437   84.0328   10.4368 C.ar    1  UNL1        0.0750
     23 C          62.8514   85.1857   11.2605 C.ar    1  UNL1        0.2876
     24 N          62.9295   85.1256   12.7573 N.pl3   1  UNL1        0.0806
     25 O          63.6308   86.2129   13.5160 O.2     1  UNL1        0.0415
     26 O          62.3063   83.9779   13.4953 O.co2   1  UNL1       -0.5760
@<TRIPOS>UNITY_ATOM_ATTR
24 1
charge 1
26 1
charge -1
@<TRIPOS>BOND
     1     5     6    1
     2     6     7   ar
     3     7     8   ar
     4     8     9   ar
     5     9    10   ar
     6    10    11   ar
     7    11     1    1
     8     1     2    2
     9     1     3   am
    10     3    17    1
    11    17    18    1
    12    18    19   ar
    13    19    20   ar
    14    20    21   ar
    15    21    22   ar
    16    22    23   ar
    17    23    24    1
    18    24    25    2
    19    24    26    1
    20    11    12   ar
    21    12    13   ar
    22    13    14   ar
    23    14     6   ar
    24    13     8   ar
    25    23    18   ar
    26     5    15    1
    27     5    16    1
    28     3     4    1
@<TRIPOS>MOLECULE
*****
 26 28 0 0 0
SMALL
GASTEIGER

@<TRIPOS>ATOM
      1 C          62.6757   88.7075   12.1310 C.2     1  UNL1        0.2461
      2 O          61.2389   88.9347   11.7649 O.2     1  UNL1       -0.2701
      3 N          63.2186   87.3113   12.2067 N.am    1  UNL1       -0.2967
      4 H          64.1616   87.1622   12.4470 H       1  UNL1        0.1501
      5 N          66.8011   95.3166   11.1700 N.pl3   1  UNL1       -0.3375
      6 C          66.1145   94.0622   11.6229 C.ar    1  UNL1        0.1567
      7 N          66.1951   93.4588   12.9937 N.ar    1  UNL1       -0.2245
      8 C          65.3572   92.2146   13.0025 C.ar    1  UNL1        0.0892
      9 C          65.0618   91.2111   14.0775 C.ar    1  UNL1        0.0198
     10 C          64.1680   90.0420   13.7870 C.ar    1  UNL1        0.0061
     11 C          63.5695   89.8766   12.4215 C.ar    1  UNL1        0.0540
     12 C          63.8649   90.8802   11.3466 C.ar    1  UNL1        0.0126
     13 C          64.7587   92.0492   11.6371 C.ar    1  UNL1        0.0498
     14 S          65.2268   93.1911   10.7844 S.2     1  UNL1       -0.0520
     15 H          67.3666   95.8223   11.7975 H       1  UNL1        0.1442
     16 H          66.6863   95.6342   10.2452 H       1  UNL1        0.1442
     17 C          62.3247   86.1422   11.9162 C.3     1  UNL1        0.1227
     18 C          62.8597   84.7448   12.0212 C.ar    1  UNL1        0.0668
     19 C          63.1130   83.9433   10.7788 C.ar    1  UNL1        0.0035
     20 C          63.6480   82.5459   10.8839 C.ar    1  UNL1        0.0001
     21 C          63.9296   81.9499   12.2314 C.ar    1  UNL1        0.0063
     22 C          63.6762   82.7514   13.4737 C.ar    1  UNL1        0.0750
     23 C          63.1412   84.1489   13.3686 C.ar    1  UNL1        0.2876
     24 N          62.8879   84.9503   14.6110 N.pl3   1  UNL1        0.0806
     25 O          61.6722   84.6758   15.4457 O.2     1  UNL1        0.0415
     26 O          63.8502   86.0264   15.0186 O.co2   1  UNL1       -0.5760
@<TRIPOS>UNITY_ATOM_ATTR
24 1
charge 1
26 1
charge -1
@<TRIPOS>BOND
     1     5     6    1
     2     6     7   ar
     3     7     8   ar
     4     8     9   ar
     5     9    10   ar
     6    10    11   ar
     7    11     1    1
     8     1     2    2
     9     1     3   am
    10     3    17    1
    11    17    18    1
    12    18    19   ar
    13    19    20   ar
    14    20    21   ar
    15    21    22   ar
    16    22    23   ar
    17    23    24    1
    18    24    25    2
    19    24    26    1
    20    11    12   ar
    21    12    13   ar
    22    13    14   ar
    23    14     6   ar
    24    13     8   ar
    25    23    18   ar
    26     5    15    1
    27     5    16    1
    28     3     4    1
@<TRIPOS>MOLECULE
*****
 26 28 0 0 0
SMALL
GASTEIGER

@<TRIPOS>ATOM
      1 C          63.9205   89.1161   15.5089 C.2     1  UNL1        0.2461
      2 O          63.1529   90.0424   16.4049 O.2     1  UNL1       -0.2701
      3 N          64.9190   89.6700   14.5362 N.am    1  UNL1       -0.2967
      4 H          65.4228   89.0620   13.9481 H       1  UNL1        0.1501
      5 N          63.8637   81.5031   13.5952 N.pl3   1  UNL1       -0.3375
      6 C          63.7447   82.8696   14.2023 C.ar    1  UNL1        0.1567
      7 N          63.1339   83.1928   15.5336 N.ar    1  UNL1       -0.2245
      8 C          63.2272   84.6758   15.7387 C.ar    1  UNL1        0.0892
      9 C          62.7899   85.5625   16.8667 C.ar    1  UNL1        0.0198
     10 C          63.0210   87.0426   16.7901 C.ar    1  UNL1        0.0061
     11 C          63.6894   87.6359   15.5854 C.ar    1  UNL1        0.0540
     12 C          64.1267   86.7492   14.4574 C.ar    1  UNL1        0.0126
     13 C          63.8956   85.2692   14.5341 C.ar    1  UNL1        0.0498
     14 S          64.2154   84.1529   13.5845 S.2     1  UNL1       -0.0520
     15 H          63.5229   80.7174   14.0808 H       1  UNL1        0.1442
     16 H          64.2827   81.3919   12.7113 H       1  UNL1        0.1442
     17 C          65.1501   91.1501   14.4596 C.3     1  UNL1        0.1227
     18 C          65.3144   91.8155   13.1254 C.ar    1  UNL1        0.0668
     19 C          64.3058   91.5799   12.0405 C.ar    1  UNL1        0.0035
     20 C          64.4701   92.2452   10.7062 C.ar    1  UNL1        0.0001
     21 C          65.6431   93.1463   10.4569 C.ar    1  UNL1        0.0063
     22 C          66.6518   93.3819   11.5418 C.ar    1  UNL1        0.0750
     23 C          66.4874   92.7165   12.8761 C.ar    1  UNL1        0.2876
     24 N          67.4961   92.9522   13.9610 N.pl3   1  UNL1        0.0806
     25 O          67.1564   93.8406   15.1208 O.2     1  UNL1        0.0415
     26 O          68.8446   92.2993   13.8861 O.co2   1  UNL1       -0.5760
@<TRIPOS>UNITY_ATOM_ATTR
24 1
charge 1
26 1
charge -1
@<TRIPOS>BOND
     1     5     6    1
     2     6     7   ar
     3     7     8   ar
     4     8     9   ar
     5     9    10   ar
     6    10    11   ar
     7    11     1    1
     8     1     2    2
     9     1     3   am
    10     3    17    1
    11    17    18    1
    12    18    19   ar
    13    19    20   ar
    14    20    21   ar
    15    21    22   ar
    16    22    23   ar
    17    23    24    1
    18    24    25    2
    19    24    26    1
    20    11    12   ar
    21    12    13   ar
    22    13    14   ar
    23    14     6   ar
    24    13     8   ar
    25    23    18   ar
    26     5    15    1
    27     5    16    1
    28     3     4    1
@<TRIPOS>MOLECULE
*****
 26 28 0 0 0
SMALL
GASTEIGER

@<TRIPOS>ATOM
      1 C          63.7295   87.8510   13.3211 C.2     1  UNL1        0.2461
      2 O          63.0159   88.3416   12.0964 O.2     1  UNL1       -0.2701
      3 N          64.4839   88.8163   14.1867 N.am    1  UNL1       -0.2967
      4 H          64.9523   88.4943   14.9906 H       1  UNL1        0.1501
      5 N          62.5785   80.1040   12.7911 N.pl3   1  UNL1       -0.3375
      6 C          62.8926   81.5241   13.1578 C.ar    1  UNL1        0.1567
      7 N          63.4518   81.9934   14.4682 N.ar    1  UNL1       -0.2245
      8 C          63.6076   83.4837   14.3987 C.ar    1  UNL1        0.0892
      9 C          64.1111   84.4876   15.3929 C.ar    1  UNL1        0.0198
     10 C          64.1518   85.9434   15.0337 C.ar    1  UNL1        0.0061
     11 C          63.6889   86.3952   13.6803 C.ar    1  UNL1        0.0540
     12 C          63.1854   85.3912   12.6861 C.ar    1  UNL1        0.0126
     13 C          63.1447   83.9355   13.0453 C.ar    1  UNL1        0.0498
     14 S          62.7029   82.7244   12.2784 S.2     1  UNL1       -0.0520
     15 H          62.7384   79.3811   13.4401 H       1  UNL1        0.1442
     16 H          62.2122   79.8947   11.9016 H       1  UNL1        0.1442
     17 C          64.5245   90.2721   13.8276 C.3     1  UNL1        0.1227
     18 C          65.5501   91.1705   14.4529 C.ar    1  UNL1        0.0668
     19 C          66.8687   91.3910   13.7728 C.ar    1  UNL1        0.0035
     20 C          67.8942   92.2894   14.3981 C.ar    1  UNL1        0.0001
     21 C          67.6011   92.9674   15.7038 C.ar    1  UNL1        0.0063
     22 C          66.2825   92.7469   16.3839 C.ar    1  UNL1        0.0750
     23 C          65.2570   91.8484   15.7585 C.ar    1  UNL1        0.2876
     24 N          63.9383   91.6279   16.4386 N.pl3   1  UNL1        0.0806
     25 O          63.4220   90.2341   16.6399 O.2     1  UNL1        0.0415
     26 O          63.1360   92.8014   16.9176 O.co2   1  UNL1       -0.5760
@<TRIPOS>UNITY_ATOM_ATTR
24 1
charge 1
26 1
charge -1
@<TRIPOS>BOND
     1     5     6    1
     2     6     7   ar
     3     7     8   ar
     4     8     9   ar
     5     9    10   ar
     6    10    11   ar
     7    11     1    1
     8     1     2    2
     9     1     3   am
    10     3    17    1
    11    17    18    1
    12    18    19   ar
    13    19    20   ar
    14    20    21   ar
    15    21    22   ar
    16    22    23   ar
    17    23    24    1
    18    24    25    2
    19    24    26    1
    20    11    12   ar
    21    12    13   ar
    22    13    14   ar
    23    14     6   ar
    24    13     8   ar
    25    23    18   ar
    26     5    15    1
    27     5    16    1
    28     3     4    1
@<TRIPOS>MOLECULE
*****
 26 28 0 0 0
SMALL
GASTEIGER

@<TRIPOS>ATOM
      1 C          62.6272   88.1171   11.5442 C.2     1  UNL1        0.2461
      2 O          62.0724   88.8354   10.3499 O.2     1  UNL1       -0.2701
      3 N          63.1369   88.8979   12.7191 N.am    1  UNL1       -0.2967
      4 H          63.5010   88.4264   13.5029 H       1  UNL1        0.1501
      5 N          63.5957   80.7516   14.0810 N.pl3   1  UNL1       -0.3375
      6 C          63.3378   82.0342   13.3472 C.ar    1  UNL1        0.1567
      7 N          62.8978   82.1596   11.9187 N.ar    1  UNL1       -0.2245
      8 C          62.7626   83.6195   11.6017 C.ar    1  UNL1        0.0892
      9 C          62.3610   84.3417   10.3499 C.ar    1  UNL1        0.0198
     10 C          62.3159   85.8409   10.3308 C.ar    1  UNL1        0.0061
     11 C          62.6724   86.6178   11.5634 C.ar    1  UNL1        0.0540
     12 C          63.0740   85.8955   12.8152 C.ar    1  UNL1        0.0126
     13 C          63.1191   84.3964   12.8343 C.ar    1  UNL1        0.0498
     14 S          63.4746   83.4166   13.9131 S.2     1  UNL1       -0.0520
     15 H          63.4777   79.8891   13.6212 H       1  UNL1        0.1442
     16 H          63.8830   80.7723   15.0225 H       1  UNL1        0.1442
     17 C          63.0917   90.3971   12.6999 C.3     1  UNL1        0.1227
     18 C          64.2693   91.1892   13.1856 C.ar    1  UNL1        0.0668
     19 C          65.0689   92.0128   12.2200 C.ar    1  UNL1        0.0035
     20 C          66.2464   92.8049   12.7057 C.ar    1  UNL1        0.0001
     21 C          66.6245   92.7734   14.1570 C.ar    1  UNL1        0.0063
     22 C          65.8249   91.9497   15.1225 C.ar    1  UNL1        0.0750
     23 C          64.6473   91.1576   14.6368 C.ar    1  UNL1        0.2876
     24 N          63.8477   90.3340   15.6023 N.pl3   1  UNL1        0.0806
     25 O          63.1132   91.0003   16.7277 O.2     1  UNL1        0.0415
     26 O          63.7827   88.8439   15.4425 O.co2   1  UNL1       -0.5760
@<TRIPOS>UNITY_ATOM_ATTR
24 1
charge 1
26 1
charge -1
@<TRIPOS>BOND
     1     5     6    1
     2     6     7   ar
     3     7     8   ar
     4     8     9   ar
     5     9    10   ar
     6    10    11   ar
     7    11     1    1
     8     1     2    2
     9     1     3   am
    10     3    17    1
    11    17    18    1
    12    18    19   ar
    13    19    20   ar
    14    20    21   ar
    15    21    22   ar
    16    22    23   ar
    17    23    24    1
    18    24    25    2
    19    24    26    1
    20    11    12   ar
    21    12    13   ar
    22    13    14   ar
    23    14     6   ar
    24    13     8   ar
    25    23    18   ar
    26     5    15    1
    27     5    16    1
    28     3     4    1
@<TRIPOS>MOLECULE
*****
 26 28 0 0 0
SMALL
GASTEIGER

@<TRIPOS>ATOM
      1 C          62.8107   87.3666   11.9364 C.2     1  UNL1        0.2461
      2 O          62.3199   87.4146   10.5198 O.2     1  UNL1       -0.2701
      3 N          63.0304   88.6403   12.6976 N.am    1  UNL1       -0.2967
      4 H          63.3526   88.6088   13.6274 H       1  UNL1        0.1501
      5 N          62.7568   79.6529   13.3921 N.pl3   1  UNL1       -0.3375
      6 C          62.9319   81.1421   13.3496 C.ar    1  UNL1        0.1567
      7 N          63.7189   81.9655   14.3255 N.ar    1  UNL1       -0.2245
      8 C          63.6241   83.4016   13.9028 C.ar    1  UNL1        0.0892
      9 C          64.1986   84.6591   14.4846 C.ar    1  UNL1        0.0198
     10 C          63.9274   85.9808   13.8292 C.ar    1  UNL1        0.0061
     11 C          63.0819   86.0449   12.5919 C.ar    1  UNL1        0.0540
     12 C          62.5074   84.7874   12.0101 C.ar    1  UNL1        0.0126
     13 C          62.7786   83.4657   12.6655 C.ar    1  UNL1        0.0498
     14 S          62.3507   82.0693   12.3236 S.2     1  UNL1       -0.0520
     15 H          63.1799   79.1278   14.1093 H       1  UNL1        0.1442
     16 H          62.2187   79.2007   12.7027 H       1  UNL1        0.1442
     17 C          62.7593   89.9621   12.0421 C.3     1  UNL1        0.1227
     18 C          63.8343   91.0067   11.9877 C.ar    1  UNL1        0.0668
     19 C          64.1446   91.6968   10.6925 C.ar    1  UNL1        0.0035
     20 C          65.2196   92.7415   10.6380 C.ar    1  UNL1        0.0001
     21 C          65.9844   93.0961   11.8788 C.ar    1  UNL1        0.0063
     22 C          65.6741   92.4060   13.1740 C.ar    1  UNL1        0.0750
     23 C          64.5990   91.3613   13.2284 C.ar    1  UNL1        0.2876
     24 N          64.2887   90.6712   14.5236 N.pl3   1  UNL1        0.0806
     25 O          63.4677   91.3689   15.5672 O.2     1  UNL1        0.0415
     26 O          64.7995   89.2834   14.7751 O.co2   1  UNL1       -0.5760
@<TRIPOS>UNITY_ATOM_ATTR
24 1
charge 1
26 1
charge -1
@<TRIPOS>BOND
     1     5     6    1
     2     6     7   ar
     3     7     8   ar
     4     8     9   ar
     5     9    10   ar
     6    10    11   ar
     7    11     1    1
     8     1     2    2
     9     1     3   am
    10     3    17    1
    11    17    18    1
    12    18    19   ar
    13    19    20   ar
    14    20    21   ar
    15    21    22   ar
    16    22    23   ar
    17    23    24    1
    18    24    25    2
    19    24    26    1
    20    11    12   ar
    21    12    13   ar
    22    13    14   ar
    23    14     6   ar
    24    13     8   ar
    25    23    18   ar
    26     5    15    1
    27     5    16    1
    28     3     4    1
