@<TRIPOS>MOLECULE
*****
 29 32 0 0 0
SMALL
GASTEIGER

@<TRIPOS>ATOM
      1 C          63.3053   82.2332   11.0951 C.3     1  UNL1        0.0310
      2 C          63.2116   83.0068   12.3768 C.ar    1  UNL1       -0.0164
      3 C          63.4910   84.4806   12.3853 C.ar    1  UNL1        0.0160
      4 C          63.3972   85.2543   13.6671 C.ar    1  UNL1        0.0940
      5 C          63.0241   84.5542   14.9400 C.ar    1  UNL1        0.0681
      6 C          62.7447   83.0806   14.9315 C.ar    1  UNL1        0.0197
      7 C          62.8384   82.3068   13.6499 C.ar    1  UNL1        0.0688
      8 N          62.8752   85.1322   16.3162 N.am    1  UNL1       -0.2824
      9 C          63.0628   86.5531   16.7591 C.2     1  UNL1        0.2322
     10 O          62.8379   86.8147   18.2189 O.2     1  UNL1       -0.2744
     11 C          63.4455   87.7467   15.9354 C.3     1  UNL1        0.1309
     12 C          63.7352   87.8144   14.4651 C.2     1  UNL1        0.0682
     13 N          63.7137   86.7052   13.4556 N.2     1  UNL1       -0.2479
     14 H          62.6208   84.4948   17.0220 H       1  UNL1        0.1549
     15 C          64.0938   89.1707   13.9343 C.ar    1  UNL1        0.0155
     16 C          63.2837   89.7820   12.8296 C.ar    1  UNL1        0.0013
     17 C          63.6424   91.1383   12.2987 C.ar    1  UNL1        0.0015
     18 C          64.8110   91.8834   12.8725 C.ar    1  UNL1        0.0176
     19 C          65.6211   91.2721   13.9771 C.ar    1  UNL1        0.0656
     20 C          65.2625   89.9157   14.5080 C.ar    1  UNL1        0.0187
     21 N          66.7898   92.0172   14.5508 N.ar    1  UNL1       -0.2864
     22 C          66.7787   92.8477   15.7999 C.ar    1  UNL1        0.1022
     23 C          68.1568   93.4063   15.9972 C.ar    1  UNL1        0.1196
     24 N          69.0194   92.9210   14.8701 N.ar    1  UNL1       -0.2220
     25 C          68.1746   92.0625   13.9762 C.ar    1  UNL1        0.1828
     26 C          62.5590   80.8331   13.6413 C.3     1  UNL1        0.4183
     27 F          62.2794   79.3594   13.6326 F       1  UNL1       -0.1659
     28 F          61.0982   81.1113   13.4444 F       1  UNL1       -0.1659
     29 F          64.0196   80.5549   13.8381 F       1  UNL1       -0.1659
@<TRIPOS>BOND
     1     1     2    1
     2     2     3   ar
     3     3     4   ar
     4     4     5   ar
     5     5     6   ar
     6     6     7   ar
     7     7    26    1
     8    26    27    1
     9    26    28    1
    10    26    29    1
    11     5     8    1
    12     8     9   am
    13     9    10    2
    14     9    11    1
    15    11    12    1
    16    12    15    1
    17    15    16   ar
    18    16    17   ar
    19    17    18   ar
    20    18    19   ar
    21    19    21    1
    22    21    22   ar
    23    22    23   ar
    24    23    24   ar
    25    24    25   ar
    26    19    20   ar
    27    12    13    2
    28     7     2   ar
    29    20    15   ar
    30    13     4    1
    31    25    21   ar
    32     8    14    1
@<TRIPOS>MOLECULE
*****
 29 32 0 0 0
SMALL
GASTEIGER

@<TRIPOS>ATOM
      1 C          64.2906   82.2366   14.0539 C.3     1  UNL1        0.0310
      2 C          63.8257   83.4404   13.2894 C.ar    1  UNL1       -0.0164
      3 C          64.0153   84.8130   13.8639 C.ar    1  UNL1        0.0160
      4 C          63.5503   86.0169   13.0993 C.ar    1  UNL1        0.0940
      5 C          62.8958   85.8482   11.7604 C.ar    1  UNL1        0.0681
      6 C          62.7061   84.4757   11.1858 C.ar    1  UNL1        0.0197
      7 C          63.1711   83.2717   11.9503 C.ar    1  UNL1        0.0688
      8 N          62.3634   86.9060   10.8396 N.am    1  UNL1       -0.2824
      9 C          62.3540   88.3938   11.0307 C.2     1  UNL1        0.2322
     10 O          61.7432   89.1893    9.9153 O.2     1  UNL1       -0.2744
     11 C          62.8748   89.1911   12.1895 C.3     1  UNL1        0.1309
     12 C          63.5335   88.6978   13.4436 C.2     1  UNL1        0.0682
     13 N          63.8342   87.2851   13.8485 N.2     1  UNL1       -0.2479
     14 H          61.9677   86.5808    9.9988 H       1  UNL1        0.1549
     15 C          63.9462   89.7571   14.4221 C.ar    1  UNL1        0.0155
     16 C          63.0124   90.1666   15.5223 C.ar    1  UNL1        0.0013
     17 C          63.4251   91.2260   16.5008 C.ar    1  UNL1        0.0015
     18 C          64.7715   91.8758   16.3792 C.ar    1  UNL1        0.0176
     19 C          65.7053   91.4664   15.2789 C.ar    1  UNL1        0.0656
     20 C          65.2926   90.4069   14.3004 C.ar    1  UNL1        0.0187
     21 N          67.0517   92.1162   15.1573 N.ar    1  UNL1       -0.2864
     22 C          67.6602   93.0743   16.1381 C.ar    1  UNL1        0.1022
     23 C          69.0105   93.4723   15.6204 C.ar    1  UNL1        0.1196
     24 N          69.2367   92.7603   14.3197 N.ar    1  UNL1       -0.2220
     25 C          68.0261   91.9222   14.0335 C.ar    1  UNL1        0.1828
     26 C          62.9815   81.8992   11.3758 C.3     1  UNL1        0.4183
     27 F          62.7920   80.5266   10.8013 F       1  UNL1       -0.1659
     28 F          64.1448   82.1236   10.4558 F       1  UNL1       -0.1659
     29 F          61.8183   81.6747   12.2958 F       1  UNL1       -0.1659
@<TRIPOS>BOND
     1     1     2    1
     2     2     3   ar
     3     3     4   ar
     4     4     5   ar
     5     5     6   ar
     6     6     7   ar
     7     7    26    1
     8    26    27    1
     9    26    28    1
    10    26    29    1
    11     5     8    1
    12     8     9   am
    13     9    10    2
    14     9    11    1
    15    11    12    1
    16    12    15    1
    17    15    16   ar
    18    16    17   ar
    19    17    18   ar
    20    18    19   ar
    21    19    21    1
    22    21    22   ar
    23    22    23   ar
    24    23    24   ar
    25    24    25   ar
    26    19    20   ar
    27    12    13    2
    28     7     2   ar
    29    20    15   ar
    30    13     4    1
    31    25    21   ar
    32     8    14    1
@<TRIPOS>MOLECULE
*****
 29 32 0 0 0
SMALL
GASTEIGER

@<TRIPOS>ATOM
      1 C          64.3331   82.7140   14.9194 C.3     1  UNL1        0.0310
      2 C          63.7195   83.7063   13.9768 C.ar    1  UNL1       -0.0164
      3 C          64.0664   85.1613   14.0893 C.ar    1  UNL1        0.0160
      4 C          63.4527   86.1537   13.1466 C.ar    1  UNL1        0.0940
      5 C          62.4923   85.6911   12.0915 C.ar    1  UNL1        0.0681
      6 C          62.1454   84.2362   11.9789 C.ar    1  UNL1        0.0197
      7 C          62.7590   83.2437   12.9215 C.ar    1  UNL1        0.0688
      8 N          61.7730   86.5074   11.0588 N.am    1  UNL1       -0.2824
      9 C          61.8366   87.9880   10.8264 C.2     1  UNL1        0.2322
     10 O          60.9897   88.5073    9.7025 O.2     1  UNL1       -0.2744
     11 C          62.6352   89.0178   11.5691 C.3     1  UNL1        0.1309
     12 C          63.5674   88.8215   12.7278 C.2     1  UNL1        0.0682
     13 N          63.9312   87.5469   13.4299 N.2     1  UNL1       -0.2479
     14 H          61.1809   86.0051   10.4536 H       1  UNL1        0.1549
     15 C          64.2223   90.0641   13.2540 C.ar    1  UNL1        0.0155
     16 C          64.2941   90.3055   14.7327 C.ar    1  UNL1        0.0013
     17 C          64.9490   91.5482   15.2589 C.ar    1  UNL1        0.0015
     18 C          65.5322   92.5495   14.3063 C.ar    1  UNL1        0.0176
     19 C          65.4604   92.3082   12.8276 C.ar    1  UNL1        0.0656
     20 C          64.8054   91.0654   12.3014 C.ar    1  UNL1        0.0187
     21 N          66.0436   93.3095   11.8751 N.ar    1  UNL1       -0.2864
     22 C          66.5323   93.0241   10.4859 C.ar    1  UNL1        0.1022
     23 C          67.0312   94.3102    9.8968 C.ar    1  UNL1        0.1196
     24 N          66.8507   95.3904   10.9218 N.ar    1  UNL1       -0.2220
     25 C          66.2403   94.7719   12.1444 C.ar    1  UNL1        0.1828
     26 C          62.4121   81.7887   12.8090 C.3     1  UNL1        0.4183
     27 F          62.0652   80.3338   12.6966 F       1  UNL1       -0.1659
     28 F          61.3811   81.9513   13.8864 F       1  UNL1       -0.1659
     29 F          63.4431   81.6262   11.7318 F       1  UNL1       -0.1659
@<TRIPOS>BOND
     1     1     2    1
     2     2     3   ar
     3     3     4   ar
     4     4     5   ar
     5     5     6   ar
     6     6     7   ar
     7     7    26    1
     8    26    27    1
     9    26    28    1
    10    26    29    1
    11     5     8    1
    12     8     9   am
    13     9    10    2
    14     9    11    1
    15    11    12    1
    16    12    15    1
    17    15    16   ar
    18    16    17   ar
    19    17    18   ar
    20    18    19   ar
    21    19    21    1
    22    21    22   ar
    23    22    23   ar
    24    23    24   ar
    25    24    25   ar
    26    19    20   ar
    27    12    13    2
    28     7     2   ar
    29    20    15   ar
    30    13     4    1
    31    25    21   ar
    32     8    14    1
@<TRIPOS>MOLECULE
*****
 29 32 0 0 0
SMALL
GASTEIGER

@<TRIPOS>ATOM
      1 C          60.1822   88.9715    8.2588 C.3     1  UNL1        0.0310
      2 C          60.9226   88.1862    9.3004 C.ar    1  UNL1       -0.0164
      3 C          61.5609   88.8929   10.4594 C.ar    1  UNL1        0.0160
      4 C          62.3014   88.1075   11.5011 C.ar    1  UNL1        0.0940
      5 C          62.4034   86.6157   11.3838 C.ar    1  UNL1        0.0681
      6 C          61.7652   85.9090   10.2249 C.ar    1  UNL1        0.0197
      7 C          61.0247   86.6942    9.1832 C.ar    1  UNL1        0.0688
      8 N          63.0895   85.6500   12.3041 N.am    1  UNL1       -0.2824
      9 C          63.8429   85.9377   13.5689 C.2     1  UNL1        0.2322
     10 O          64.4190   84.7430   14.2693 O.2     1  UNL1       -0.2744
     11 C          64.0962   87.2622   14.2257 C.3     1  UNL1        0.1309
     12 C          63.6588   88.6261   13.7802 C.2     1  UNL1        0.0682
     13 N          62.8601   89.0023   12.5676 N.2     1  UNL1       -0.2479
     14 H          63.0386   84.7019   12.0435 H       1  UNL1        0.1549
     15 C          64.0753   89.7642   14.6640 C.ar    1  UNL1        0.0155
     16 C          63.1446   90.2675   15.7272 C.ar    1  UNL1        0.0013
     17 C          63.5611   91.4057   16.6111 C.ar    1  UNL1        0.0015
     18 C          64.9083   92.0405   16.4317 C.ar    1  UNL1        0.0176
     19 C          65.8390   91.5371   15.3685 C.ar    1  UNL1        0.0656
     20 C          65.4225   90.3989   14.4846 C.ar    1  UNL1        0.0187
     21 N          67.1862   92.1719   15.1891 N.ar    1  UNL1       -0.2864
     22 C          67.8030   93.2008   16.0897 C.ar    1  UNL1        0.1022
     23 C          69.1510   93.5540   15.5348 C.ar    1  UNL1        0.1196
     24 N          69.3674   92.7434   14.2914 N.ar    1  UNL1       -0.2220
     25 C          68.1531   91.8893   14.0777 C.ar    1  UNL1        0.1828
     26 C          60.3864   85.9876    8.0242 C.3     1  UNL1        0.4183
     27 F          59.7482   85.2810    6.8652 F       1  UNL1       -0.1659
     28 F          61.7431   85.6124    7.5059 F       1  UNL1       -0.1659
     29 F          59.0298   86.3629    8.5425 F       1  UNL1       -0.1659
@<TRIPOS>BOND
     1     1     2    1
     2     2     3   ar
     3     3     4   ar
     4     4     5   ar
     5     5     6   ar
     6     6     7   ar
     7     7    26    1
     8    26    27    1
     9    26    28    1
    10    26    29    1
    11     5     8    1
    12     8     9   am
    13     9    10    2
    14     9    11    1
    15    11    12    1
    16    12    15    1
    17    15    16   ar
    18    16    17   ar
    19    17    18   ar
    20    18    19   ar
    21    19    21    1
    22    21    22   ar
    23    22    23   ar
    24    23    24   ar
    25    24    25   ar
    26    19    20   ar
    27    12    13    2
    28     7     2   ar
    29    20    15   ar
    30    13     4    1
    31    25    21   ar
    32     8    14    1
@<TRIPOS>MOLECULE
*****
 29 32 0 0 0
SMALL
GASTEIGER

@<TRIPOS>ATOM
      1 C          64.1704   83.3558   10.9838 C.3     1  UNL1        0.0310
      2 C          63.8012   83.8171   12.3624 C.ar    1  UNL1       -0.0164
      3 C          64.0118   85.2493   12.7555 C.ar    1  UNL1        0.0160
      4 C          63.6426   85.7107   14.1342 C.ar    1  UNL1        0.0940
      5 C          63.0628   84.7400   15.1198 C.ar    1  UNL1        0.0681
      6 C          62.8523   83.3078   14.7268 C.ar    1  UNL1        0.0197
      7 C          63.2214   82.8463   13.3481 C.ar    1  UNL1        0.0688
      8 N          62.6297   84.9895   16.5341 N.am    1  UNL1       -0.2824
      9 C          62.6695   86.2714   17.3121 C.2     1  UNL1        0.2322
     10 O          62.1591   86.1940   18.7205 O.2     1  UNL1       -0.2744
     11 C          63.1521   87.6203   16.8679 C.3     1  UNL1        0.1309
     12 C          63.7141   88.0206   15.5360 C.2     1  UNL1        0.0682
     13 N          63.9324   87.1708   14.3194 N.2     1  UNL1       -0.2479
     14 H          62.2721   84.2086   17.0154 H       1  UNL1        0.1549
     15 C          64.1103   89.4612   15.4032 C.ar    1  UNL1        0.0155
     16 C          63.7645   90.4373   16.4884 C.ar    1  UNL1        0.0013
     17 C          64.1607   91.8780   16.3556 C.ar    1  UNL1        0.0015
     18 C          64.9027   92.3426   15.1375 C.ar    1  UNL1        0.0176
     19 C          65.2485   91.3665   14.0523 C.ar    1  UNL1        0.0656
     20 C          64.8523   89.9258   14.1851 C.ar    1  UNL1        0.0187
     21 N          65.9904   91.8310   12.8342 N.ar    1  UNL1       -0.2864
     22 C          65.3729   92.2656   11.5381 C.ar    1  UNL1        0.1022
     23 C          66.4810   92.6457   10.6013 C.ar    1  UNL1        0.1196
     24 N          67.7833   92.4461   11.3184 N.ar    1  UNL1       -0.2220
     25 C          67.4801   91.9426   12.6984 C.ar    1  UNL1        0.1828
     26 C          63.0109   81.4142   12.9550 C.3     1  UNL1        0.4183
     27 F          62.8002   79.9821   12.5618 F       1  UNL1       -0.1659
     28 F          61.6740   81.7700   12.3751 F       1  UNL1       -0.1659
     29 F          64.3477   81.0584   13.5349 F       1  UNL1       -0.1659
@<TRIPOS>BOND
     1     1     2    1
     2     2     3   ar
     3     3     4   ar
     4     4     5   ar
     5     5     6   ar
     6     6     7   ar
     7     7    26    1
     8    26    27    1
     9    26    28    1
    10    26    29    1
    11     5     8    1
    12     8     9   am
    13     9    10    2
    14     9    11    1
    15    11    12    1
    16    12    15    1
    17    15    16   ar
    18    16    17   ar
    19    17    18   ar
    20    18    19   ar
    21    19    21    1
    22    21    22   ar
    23    22    23   ar
    24    23    24   ar
    25    24    25   ar
    26    19    20   ar
    27    12    13    2
    28     7     2   ar
    29    20    15   ar
    30    13     4    1
    31    25    21   ar
    32     8    14    1
@<TRIPOS>MOLECULE
*****
 29 32 0 0 0
SMALL
GASTEIGER

@<TRIPOS>ATOM
      1 C          60.0137   89.6488    7.6067 C.3     1  UNL1        0.0310
      2 C          60.7046   89.0519    8.7968 C.ar    1  UNL1       -0.0164
      3 C          61.6411   89.8880    9.6178 C.ar    1  UNL1        0.0160
      4 C          62.3320   89.2910   10.8079 C.ar    1  UNL1        0.0940
      5 C          62.0865   87.8581   11.1769 C.ar    1  UNL1        0.0681
      6 C          61.1501   87.0220   10.3560 C.ar    1  UNL1        0.0197
      7 C          60.4591   87.6188    9.1659 C.ar    1  UNL1        0.0688
      8 N          62.6681   87.0726   12.3149 N.am    1  UNL1       -0.2824
      9 C          63.6388   87.5262   13.3647 C.2     1  UNL1        0.2322
     10 O          64.0326   86.4919   14.3772 O.2     1  UNL1       -0.2744
     11 C          64.2675   88.8771   13.5359 C.3     1  UNL1        0.1309
     12 C          64.0811   90.1083   12.6996 C.2     1  UNL1        0.0682
     13 N          63.2197   90.2925   11.4855 N.2     1  UNL1       -0.2479
     14 H          62.3738   86.1355   12.3815 H       1  UNL1        0.1549
     15 C          64.8588   91.3148   13.1349 C.ar    1  UNL1        0.0155
     16 C          65.2624   91.4687   14.5714 C.ar    1  UNL1        0.0013
     17 C          66.0402   92.6753   15.0067 C.ar    1  UNL1        0.0015
     18 C          66.4143   93.7278   14.0056 C.ar    1  UNL1        0.0176
     19 C          66.0107   93.5738   12.5692 C.ar    1  UNL1        0.0656
     20 C          65.2329   92.3673   12.1338 C.ar    1  UNL1        0.0187
     21 N          66.3848   94.6264   11.5681 N.ar    1  UNL1       -0.2864
     22 C          67.1013   94.3943   10.2708 C.ar    1  UNL1        0.1022
     23 C          67.2674   95.7203    9.5895 C.ar    1  UNL1        0.1196
     24 N          66.6536   96.7718   10.4656 N.ar    1  UNL1       -0.2220
     25 C          66.1081   96.0957   11.6884 C.ar    1  UNL1        0.1828
     26 C          59.5227   86.7828    8.3449 C.3     1  UNL1        0.4183
     27 F          58.5864   85.9467    7.5238 F       1  UNL1       -0.1659
     28 F          60.6689   86.3479    7.4805 F       1  UNL1       -0.1659
     29 F          58.3766   87.2177    9.2092 F       1  UNL1       -0.1659
@<TRIPOS>BOND
     1     1     2    1
     2     2     3   ar
     3     3     4   ar
     4     4     5   ar
     5     5     6   ar
     6     6     7   ar
     7     7    26    1
     8    26    27    1
     9    26    28    1
    10    26    29    1
    11     5     8    1
    12     8     9   am
    13     9    10    2
    14     9    11    1
    15    11    12    1
    16    12    15    1
    17    15    16   ar
    18    16    17   ar
    19    17    18   ar
    20    18    19   ar
    21    19    21    1
    22    21    22   ar
    23    22    23   ar
    24    23    24   ar
    25    24    25   ar
    26    19    20   ar
    27    12    13    2
    28     7     2   ar
    29    20    15   ar
    30    13     4    1
    31    25    21   ar
    32     8    14    1
@<TRIPOS>MOLECULE
*****
 29 32 0 0 0
SMALL
GASTEIGER

@<TRIPOS>ATOM
      1 C          64.3382   83.0773   15.3226 C.3     1  UNL1        0.0310
      2 C          63.6386   83.6999   14.1510 C.ar    1  UNL1       -0.0164
      3 C          63.8205   85.1598   13.8580 C.ar    1  UNL1        0.0160
      4 C          63.1209   85.7824   12.6862 C.ar    1  UNL1        0.0940
      5 C          62.2395   84.9453   11.8076 C.ar    1  UNL1        0.0681
      6 C          62.0575   83.4855   12.1005 C.ar    1  UNL1        0.0197
      7 C          62.7570   82.8628   13.2722 C.ar    1  UNL1        0.0688
      8 N          61.4561   85.3634   10.5985 N.am    1  UNL1       -0.2824
      9 C          61.3610   86.7219    9.9696 C.2     1  UNL1        0.2322
     10 O          60.4854   86.8170    8.7554 O.2     1  UNL1       -0.2744
     11 C          62.0255   87.9977   10.3945 C.3     1  UNL1        0.1309
     12 C          62.9494   88.2303   11.5531 C.2     1  UNL1        0.0682
     13 N          63.4369   87.2444   12.5730 N.2     1  UNL1       -0.2479
     14 H          60.9357   84.6521   10.1598 H       1  UNL1        0.1549
     15 C          63.4522   89.6344   11.7128 C.ar    1  UNL1        0.0155
     16 C          63.3337   90.6073   10.5772 C.ar    1  UNL1        0.0013
     17 C          63.8366   92.0115   10.7370 C.ar    1  UNL1        0.0015
     18 C          64.4580   92.4428   12.0324 C.ar    1  UNL1        0.0176
     19 C          64.5765   91.4699   13.1680 C.ar    1  UNL1        0.0656
     20 C          64.0736   90.0657   13.0082 C.ar    1  UNL1        0.0187
     21 N          65.1978   91.9012   14.4633 N.ar    1  UNL1       -0.2864
     22 C          66.5765   92.4669   14.6346 C.ar    1  UNL1        0.1022
     23 C          66.7803   92.7578   16.0919 C.ar    1  UNL1        0.1196
     24 N          65.5277   92.3719   16.8213 N.ar    1  UNL1       -0.2220
     25 C          64.5497   91.8425   15.8147 C.ar    1  UNL1        0.1828
     26 C          62.5751   81.4030   13.5652 C.3     1  UNL1        0.4183
     27 F          62.3931   79.9433   13.8583 F       1  UNL1       -0.1659
     28 F          61.3878   81.7234   14.4241 F       1  UNL1       -0.1659
     29 F          63.7624   81.0826   12.7065 F       1  UNL1       -0.1659
@<TRIPOS>BOND
     1     1     2    1
     2     2     3   ar
     3     3     4   ar
     4     4     5   ar
     5     5     6   ar
     6     6     7   ar
     7     7    26    1
     8    26    27    1
     9    26    28    1
    10    26    29    1
    11     5     8    1
    12     8     9   am
    13     9    10    2
    14     9    11    1
    15    11    12    1
    16    12    15    1
    17    15    16   ar
    18    16    17   ar
    19    17    18   ar
    20    18    19   ar
    21    19    21    1
    22    21    22   ar
    23    22    23   ar
    24    23    24   ar
    25    24    25   ar
    26    19    20   ar
    27    12    13    2
    28     7     2   ar
    29    20    15   ar
    30    13     4    1
    31    25    21   ar
    32     8    14    1
