@<TRIPOS>MOLECULE
*****
 31 35 0 0 0
SMALL
GASTEIGER

@<TRIPOS>ATOM
      1 O          61.6907   89.5862   14.2552 O.2     1  UNL1       -0.2739
      2 C          61.5781   89.8021   12.7752 C.2     1  UNL1        0.2419
      3 N          62.6371   90.5757   12.0472 N.am    1  UNL1       -0.2581
      4 C          62.6597   90.8707   10.5767 C.3     1  UNL1        0.1029
      5 C          63.8961   91.6674   10.2827 C.3     1  UNL1        0.0495
      6 C          64.6377   91.8648   11.5715 C.ar    1  UNL1       -0.0067
      7 C          65.9210   92.5717   11.8930 C.ar    1  UNL1       -0.0027
      8 C          66.4263   92.6040   13.3049 C.ar    1  UNL1       -0.0002
      9 C          65.6482   91.9292   14.3954 C.ar    1  UNL1        0.0013
     10 C          64.3649   91.2223   14.0740 C.ar    1  UNL1        0.0146
     11 C          63.8596   91.1901   12.6621 C.ar    1  UNL1        0.0499
     12 C          66.6991   93.2465   10.8023 C.ar    1  UNL1       -0.0003
     13 C          67.6859   92.4620    9.9894 C.ar    1  UNL1       -0.0000
     14 C          68.4640   93.1367    8.8988 C.ar    1  UNL1       -0.0000
     15 C          68.2552   94.5960    8.6212 C.ar    1  UNL1       -0.0000
     16 C          67.2684   95.3805    9.4341 C.ar    1  UNL1       -0.0000
     17 C          66.4904   94.7057   10.5247 C.ar    1  UNL1       -0.0000
     18 C          60.4062   89.2444   12.0230 C.3     1  UNL1        0.2068
     19 C          60.6003   88.0988   11.0743 C.2     1  UNL1        0.3580
     20 N          61.5606   86.9979   11.4143 N.2     1  UNL1       -0.0039
     21 C          61.7547   85.8523   10.4656 C.2     1  UNL1        0.3159
     22 C          60.9885   85.8077    9.1769 C.3     1  UNL1        0.2333
     23 C          60.0282   86.9087    8.8369 C.2     1  UNL1        0.3644
     24 O          59.2619   86.8642    7.5481 O.2     1  UNL1       -0.2422
     25 N          59.8341   88.0542    9.7856 N.am    1  UNL1        0.0289
     26 N          62.7150   84.7514   10.8057 N.pl3   1  UNL1       -0.1888
     27 C          63.4153   84.0021    9.7111 C.3     1  UNL1        0.2343
     28 C          64.3756   82.9012   10.0512 C.3     1  UNL1        0.1929
     29 O          64.6357   82.5494   11.4860 O.3     1  UNL1       -0.3449
     30 C          63.9354   83.2986   12.5807 C.3     1  UNL1        0.1929
     31 C          62.9751   84.3996   12.2405 C.3     1  UNL1        0.2343
@<TRIPOS>BOND
     1     1     2    2
     2     2    18    1
     3    18    19    1
     4    19    20    1
     5    20    21    2
     6    21    26    1
     7    26    27    1
     8    27    28    1
     9    28    29    1
    10    29    30    1
    11    30    31    1
    12    21    22    1
    13    22    23    1
    14    23    24    2
    15    23    25    1
    16     2     3   am
    17     3     4    1
    18     4     5    1
    19     5     6    1
    20     6     7   ar
    21     7    12    1
    22    12    13   ar
    23    13    14   ar
    24    14    15   ar
    25    15    16   ar
    26    16    17   ar
    27     7     8   ar
    28     8     9   ar
    29     9    10   ar
    30    10    11   ar
    31    25    19    2
    32    11     3    1
    33    31    26    1
    34    11     6   ar
    35    17    12   ar
@<TRIPOS>MOLECULE
*****
 31 35 0 0 0
SMALL
GASTEIGER

@<TRIPOS>ATOM
      1 O          61.7426   90.2710    9.4344 O.2     1  UNL1       -0.2739
      2 C          61.9959   89.4977   10.6944 C.2     1  UNL1        0.2419
      3 N          63.0524   89.9555   11.6558 N.am    1  UNL1       -0.2581
      4 C          63.4166   89.2883   12.9490 C.3     1  UNL1        0.1029
      5 C          64.5194   90.0813   13.5852 C.3     1  UNL1        0.0495
      6 C          64.8368   91.2387   12.6852 C.ar    1  UNL1       -0.0067
      7 C          65.8343   92.3533   12.7975 C.ar    1  UNL1       -0.0027
      8 C          65.9251   93.3902   11.7174 C.ar    1  UNL1       -0.0002
      9 C          65.0184   93.3124   10.5250 C.ar    1  UNL1        0.0013
     10 C          64.0210   92.1977   10.4127 C.ar    1  UNL1        0.0146
     11 C          63.9301   91.1609   11.4928 C.ar    1  UNL1        0.0499
     12 C          66.7410   92.4311   13.9900 C.ar    1  UNL1       -0.0003
     13 C          68.2168   92.2199   13.8251 C.ar    1  UNL1       -0.0000
     14 C          69.1235   92.2977   15.0176 C.ar    1  UNL1       -0.0000
     15 C          68.5543   92.5866   16.3749 C.ar    1  UNL1       -0.0000
     16 C          67.0783   92.7978   16.5398 C.ar    1  UNL1       -0.0000
     17 C          66.1717   92.7200   15.3474 C.ar    1  UNL1       -0.0000
     18 C          61.1928   88.2665   10.9930 C.3     1  UNL1        0.2068
     19 C          61.7484   86.9116   10.6683 C.2     1  UNL1        0.3580
     20 N          61.9434   85.8999   11.7585 N.2     1  UNL1       -0.0039
     21 C          62.4990   84.5450   11.4338 C.2     1  UNL1        0.3159
     22 C          62.8596   84.2016   10.0189 C.3     1  UNL1        0.2333
     23 C          62.6646   85.2133    8.9287 C.2     1  UNL1        0.3644
     24 O          63.0252   84.8700    7.5137 O.2     1  UNL1       -0.2422
     25 N          62.1090   86.5682    9.2534 N.am    1  UNL1        0.0289
     26 N          62.6940   83.5334   12.5241 N.pl3   1  UNL1       -0.1888
     27 C          62.8123   82.0772   12.1838 C.3     1  UNL1        0.2343
     28 C          63.0072   81.0657   13.2741 C.3     1  UNL1        0.1929
     29 O          63.0839   81.5103   14.7047 O.3     1  UNL1       -0.3449
     30 C          62.9656   82.9664   15.0450 C.3     1  UNL1        0.1929
     31 C          62.7706   83.9779   13.9546 C.3     1  UNL1        0.2343
@<TRIPOS>BOND
     1     1     2    2
     2     2    18    1
     3    18    19    1
     4    19    20    1
     5    20    21    2
     6    21    26    1
     7    26    27    1
     8    27    28    1
     9    28    29    1
    10    29    30    1
    11    30    31    1
    12    21    22    1
    13    22    23    1
    14    23    24    2
    15    23    25    1
    16     2     3   am
    17     3     4    1
    18     4     5    1
    19     5     6    1
    20     6     7   ar
    21     7    12    1
    22    12    13   ar
    23    13    14   ar
    24    14    15   ar
    25    15    16   ar
    26    16    17   ar
    27     7     8   ar
    28     8     9   ar
    29     9    10   ar
    30    10    11   ar
    31    25    19    2
    32    11     3    1
    33    31    26    1
    34    11     6   ar
    35    17    12   ar
@<TRIPOS>MOLECULE
*****
 31 35 0 0 0
SMALL
GASTEIGER

@<TRIPOS>ATOM
      1 O          64.0238   88.4342   15.3562 O.2     1  UNL1       -0.2739
      2 C          63.5549   89.3062   14.2295 C.2     1  UNL1        0.2419
      3 N          63.1352   88.6892   12.9282 N.am    1  UNL1       -0.2581
      4 C          62.6465   89.4294   11.7185 C.3     1  UNL1        0.1029
      5 C          62.3399   88.4215   10.6509 C.3     1  UNL1        0.0495
      6 C          62.6391   87.0583   11.2007 C.ar    1  UNL1       -0.0067
      7 C          62.5275   85.6877   10.6016 C.ar    1  UNL1       -0.0027
      8 C          62.9075   84.4826   11.4098 C.ar    1  UNL1       -0.0002
      9 C          63.3990   84.6481   12.8173 C.ar    1  UNL1        0.0013
     10 C          63.5106   86.0187   13.4164 C.ar    1  UNL1        0.0146
     11 C          63.1307   87.2238   12.6082 C.ar    1  UNL1        0.0499
     12 C          62.0359   85.5222    9.1940 C.ar    1  UNL1       -0.0003
     13 C          62.9129   84.8729    8.1648 C.ar    1  UNL1       -0.0000
     14 C          62.4213   84.7074    6.7573 C.ar    1  UNL1       -0.0000
     15 C          61.0528   85.1913    6.3791 C.ar    1  UNL1       -0.0000
     16 C          60.1758   85.8406    7.4084 C.ar    1  UNL1       -0.0000
     17 C          60.6674   86.0060    8.8158 C.ar    1  UNL1       -0.0000
     18 C          63.5055   90.7952   14.4040 C.3     1  UNL1        0.2068
     19 C          64.7484   91.6138   14.2167 C.2     1  UNL1        0.3580
     20 N          65.2480   91.9133   12.8345 N.2     1  UNL1       -0.0039
     21 C          66.4909   92.7320   12.6472 C.2     1  UNL1        0.3159
     22 C          67.2341   93.2512   13.8421 C.3     1  UNL1        0.2333
     23 C          66.7345   92.9518   15.2244 C.2     1  UNL1        0.3644
     24 O          67.4777   93.4710   16.4194 O.2     1  UNL1       -0.2422
     25 N          65.4916   92.1331   15.4117 N.am    1  UNL1        0.0289
     26 N          66.9905   93.0314   11.2649 N.pl3   1  UNL1       -0.1888
     27 C          67.9370   92.0848   10.5879 C.3     1  UNL1        0.2343
     28 C          68.4365   92.3843    9.2057 C.3     1  UNL1        0.1929
     29 O          67.9896   93.6303    8.5002 O.3     1  UNL1       -0.3449
     30 C          67.0432   94.5770    9.1771 C.3     1  UNL1        0.1929
     31 C          66.5436   94.2774   10.5594 C.3     1  UNL1        0.2343
@<TRIPOS>BOND
     1     1     2    2
     2     2    18    1
     3    18    19    1
     4    19    20    1
     5    20    21    2
     6    21    26    1
     7    26    27    1
     8    27    28    1
     9    28    29    1
    10    29    30    1
    11    30    31    1
    12    21    22    1
    13    22    23    1
    14    23    24    2
    15    23    25    1
    16     2     3   am
    17     3     4    1
    18     4     5    1
    19     5     6    1
    20     6     7   ar
    21     7    12    1
    22    12    13   ar
    23    13    14   ar
    24    14    15   ar
    25    15    16   ar
    26    16    17   ar
    27     7     8   ar
    28     8     9   ar
    29     9    10   ar
    30    10    11   ar
    31    25    19    2
    32    11     3    1
    33    31    26    1
    34    11     6   ar
    35    17    12   ar
@<TRIPOS>MOLECULE
*****
 31 35 0 0 0
SMALL
GASTEIGER

@<TRIPOS>ATOM
      1 O          63.8658   89.4474   16.1017 O.2     1  UNL1       -0.2739
      2 C          63.6415   89.4189   14.6189 C.2     1  UNL1        0.2419
      3 N          63.5707   88.1065   13.8961 N.am    1  UNL1       -0.2581
      4 C          63.3526   87.9215   12.4236 C.3     1  UNL1        0.1029
      5 C          63.3526   86.4493   12.1363 C.3     1  UNL1        0.0495
      6 C          63.5706   85.7244   13.4313 C.ar    1  UNL1       -0.0067
      7 C          63.6638   84.2640   13.7607 C.ar    1  UNL1       -0.0027
      8 C          63.8918   83.8277   15.1776 C.ar    1  UNL1       -0.0002
      9 C          64.0266   84.8519   16.2652 C.ar    1  UNL1        0.0013
     10 C          63.9334   86.3124   15.9358 C.ar    1  UNL1        0.0146
     11 C          63.7054   86.7486   14.5189 C.ar    1  UNL1        0.0499
     12 C          63.5290   83.2398   12.6731 C.ar    1  UNL1       -0.0003
     13 C          64.2370   83.4368   11.3654 C.ar    1  UNL1       -0.0000
     14 C          64.1022   82.4125   10.2778 C.ar    1  UNL1       -0.0000
     15 C          63.2594   81.1913   10.4979 C.ar    1  UNL1       -0.0000
     16 C          62.5515   80.9944   11.8056 C.ar    1  UNL1       -0.0000
     17 C          62.6863   82.0186   12.8931 C.ar    1  UNL1       -0.0000
     18 C          63.4882   90.7030   13.8588 C.3     1  UNL1        0.2068
     19 C          64.5991   91.7109   13.8573 C.2     1  UNL1        0.3580
     20 N          64.9645   92.4224   12.5884 N.2     1  UNL1       -0.0039
     21 C          66.0754   93.4303   12.5868 C.2     1  UNL1        0.3159
     22 C          66.8209   93.7267   13.8542 C.3     1  UNL1        0.2333
     23 C          66.4555   93.0152   15.1231 C.2     1  UNL1        0.3644
     24 O          67.2010   93.3116   16.3906 O.2     1  UNL1       -0.2422
     25 N          65.3446   92.0073   15.1247 N.am    1  UNL1        0.0289
     26 N          66.4407   94.1418   11.3178 N.pl3   1  UNL1       -0.1888
     27 C          67.1717   93.4101   10.2314 C.3     1  UNL1        0.2343
     28 C          67.5370   94.1217    8.9625 C.3     1  UNL1        0.1929
     29 O          67.1714   95.5649    8.7799 O.3     1  UNL1       -0.3449
     30 C          66.4404   96.2967    9.8663 C.3     1  UNL1        0.1929
     31 C          66.0751   95.5850   11.1353 C.3     1  UNL1        0.2343
@<TRIPOS>BOND
     1     1     2    2
     2     2    18    1
     3    18    19    1
     4    19    20    1
     5    20    21    2
     6    21    26    1
     7    26    27    1
     8    27    28    1
     9    28    29    1
    10    29    30    1
    11    30    31    1
    12    21    22    1
    13    22    23    1
    14    23    24    2
    15    23    25    1
    16     2     3   am
    17     3     4    1
    18     4     5    1
    19     5     6    1
    20     6     7   ar
    21     7    12    1
    22    12    13   ar
    23    13    14   ar
    24    14    15   ar
    25    15    16   ar
    26    16    17   ar
    27     7     8   ar
    28     8     9   ar
    29     9    10   ar
    30    10    11   ar
    31    25    19    2
    32    11     3    1
    33    31    26    1
    34    11     6   ar
    35    17    12   ar
