@<TRIPOS>MOLECULE
*****
 37 39 0 0 0
SMALL
GASTEIGER

@<TRIPOS>ATOM
      1 C          63.6048   87.2509   15.9408 C.3     1  UNL1        0.1812
      2 O          64.2574   87.3776   14.5963 O.3     1  UNL1       -0.3784
      3 H          64.6856   86.5387   14.3644 H       1  UNL1        0.2106
      4 C          62.9521   87.1242   17.2854 C.3     1  UNL1        0.4197
      5 F          62.2995   86.9975   18.6301 F       1  UNL1       -0.1676
      6 F          62.0691   88.2943   16.9672 F       1  UNL1       -0.1676
      7 F          63.8350   85.9541   17.6037 F       1  UNL1       -0.1676
      8 C          64.0764   85.8301   16.0359 C.3     1  UNL1        0.0398
      9 C          65.3371   85.0009   14.5450 C.3     1  UNL1        0.0045
     10 C          63.8787   84.8953   14.8796 C.3     1  UNL1        0.0216
     11 C          62.4203   84.7897   15.2142 C.3     1  UNL1        0.0045
     12 C          63.6811   83.9605   13.7232 C.ar    1  UNL1       -0.0183
     13 C          64.1076   82.5269   13.8364 C.ar    1  UNL1       -0.0033
     14 C          63.9100   81.5921   12.6801 C.ar    1  UNL1        0.0111
     15 C          63.2858   82.0910   11.4105 C.ar    1  UNL1        0.0578
     16 CL         63.0882   81.1562   10.2542 Cl      1  UNL1       -0.0822
     17 C          62.8594   83.5246   11.2974 C.ar    1  UNL1        0.0156
     18 C          63.0570   84.4594   12.4538 C.ar    1  UNL1        0.0500
     19 C          62.6305   85.8931   12.3406 C.2     1  UNL1        0.2425
     20 N          61.2102   86.2278   11.9935 N.am    1  UNL1       -0.3253
     21 O          63.6244   86.9919   12.5745 O.2     1  UNL1       -0.2704
     22 H          60.5578   85.5066   11.8399 H       1  UNL1        0.1453
     23 H          60.9302   87.1688   11.9192 H       1  UNL1        0.1453
     24 C          63.1332   88.6716   15.8458 C.3     1  UNL1        0.0811
     25 C          63.5240   89.5144   14.6681 C.2     1  UNL1        0.0613
     26 C          64.7447   90.3806   14.5700 C.2     1  UNL1        0.0161
     27 C          64.7379   91.0404   13.2230 C.2     1  UNL1        0.0195
     28 C          65.6888   91.9995   12.5703 C.2     1  UNL1        0.0388
     29 C          65.4148   92.5001   11.1830 C.2     1  UNL1        0.1823
     30 N          64.1899   92.0417   10.4486 N.2     1  UNL1       -0.2468
     31 C          63.2389   91.0827   11.1013 C.3     1  UNL1        0.1722
     32 C          63.5129   90.5821   12.4884 C.2     1  UNL1        0.0833
     33 N          62.7627   89.6389   13.3816 N.2     1  UNL1       -0.2519
     34 S          66.3657   93.4591   10.5303 S.O2    1  UNL1        0.0265
     35 C          67.3166   94.4182    9.8776 C.3     1  UNL1        0.1834
     36 O          67.3194   92.3324   10.2641 O.2     1  UNL1       -0.1671
     37 O          65.4120   94.5859   10.7965 O.2     1  UNL1       -0.1671
@<TRIPOS>BOND
     1     9    10    1
     2    10    11    1
     3    10     8    1
     4     8     1    1
     5     1     2    1
     6     1    24    1
     7    24    25    1
     8    25    26    2
     9    26    27    1
    10    27    28    2
    11    28    29    1
    12    29    34    1
    13    34    35    1
    14    34    36    2
    15    34    37    2
    16    29    30    2
    17    30    31    1
    18    31    32    1
    19    32    33    2
    20     1     4    1
    21     4     5    1
    22     4     6    1
    23     4     7    1
    24    10    12    1
    25    12    13   ar
    26    13    14   ar
    27    14    15   ar
    28    15    16    1
    29    15    17   ar
    30    17    18   ar
    31    18    19    1
    32    19    20   am
    33    19    21    2
    34    33    25    1
    35    18    12   ar
    36    32    27    1
    37     2     3    1
    38    20    22    1
    39    20    23    1
@<TRIPOS>MOLECULE
*****
 37 39 0 0 0
SMALL
GASTEIGER

@<TRIPOS>ATOM
      1 C          62.3746   86.6362   10.6858 C.3     1  UNL1        0.1812
      2 O          63.1313   86.4716   11.9704 O.3     1  UNL1       -0.3784
      3 H          63.6686   85.6651   11.9281 H       1  UNL1        0.2106
      4 C          61.6179   86.8008    9.4012 C.3     1  UNL1        0.4197
      5 F          60.8613   86.9654    8.1164 F       1  UNL1       -0.1676
      6 F          60.3869   87.1721   10.1737 F       1  UNL1       -0.1676
      7 F          62.8489   86.4295    8.6286 F       1  UNL1       -0.1676
      8 C          62.9885   85.3716   10.1621 C.3     1  UNL1        0.0398
      9 C          61.6093   84.5454   11.5461 C.3     1  UNL1        0.0045
     10 C          62.9297   84.1151   10.9793 C.3     1  UNL1        0.0216
     11 C          64.2501   83.6847   10.4125 C.3     1  UNL1        0.0045
     12 C          62.8709   82.8585   11.7964 C.ar    1  UNL1       -0.0183
     13 C          62.6537   81.5357   11.1233 C.ar    1  UNL1       -0.0033
     14 C          62.5949   80.2792   11.9405 C.ar    1  UNL1        0.0111
     15 C          62.7534   80.3455   13.4306 C.ar    1  UNL1        0.0578
     16 CL         62.6946   79.0890   14.2478 Cl      1  UNL1       -0.0822
     17 C          62.9706   81.6683   14.1036 C.ar    1  UNL1        0.0156
     18 C          63.0294   82.9248   13.2865 C.ar    1  UNL1        0.0500
     19 C          63.2466   84.2477   13.9596 C.2     1  UNL1        0.2425
     20 N          62.1539   84.8564   14.7874 N.am    1  UNL1       -0.3253
     21 O          64.5566   84.9618   13.8047 O.2     1  UNL1       -0.2704
     22 H          61.2941   84.3877   14.8890 H       1  UNL1        0.1453
     23 H          62.2964   85.7246   15.2291 H       1  UNL1        0.1453
     24 C          61.7608   87.9007   11.2094 C.3     1  UNL1        0.0811
     25 C          62.6249   89.0949   11.4867 C.2     1  UNL1        0.0613
     26 C          63.0710   90.1134   10.4797 C.2     1  UNL1        0.0161
     27 C          63.9164   91.1284   11.1902 C.2     1  UNL1        0.0195
     28 C          64.6266   92.3582   10.7073 C.2     1  UNL1        0.0388
     29 C          65.4132   93.1970   11.6706 C.2     1  UNL1        0.1823
     30 N          65.4897   92.8059   13.1166 N.2     1  UNL1       -0.2468
     31 C          64.7796   91.5761   13.5995 C.3     1  UNL1        0.1722
     32 C          63.9930   90.7373   12.6364 C.2     1  UNL1        0.0833
     33 N          63.1947   89.4805   12.8196 N.2     1  UNL1       -0.2519
     34 S          66.1233   94.4269   11.1876 S.O2    1  UNL1        0.0265
     35 C          66.8334   95.6567   10.7047 C.3     1  UNL1        0.1834
     36 O          66.1430   94.9652   12.5876 O.2     1  UNL1       -0.1671
     37 O          66.1037   93.8885    9.7877 O.2     1  UNL1       -0.1671
@<TRIPOS>BOND
     1     9    10    1
     2    10    11    1
     3    10     8    1
     4     8     1    1
     5     1     2    1
     6     1    24    1
     7    24    25    1
     8    25    26    2
     9    26    27    1
    10    27    28    2
    11    28    29    1
    12    29    34    1
    13    34    35    1
    14    34    36    2
    15    34    37    2
    16    29    30    2
    17    30    31    1
    18    31    32    1
    19    32    33    2
    20     1     4    1
    21     4     5    1
    22     4     6    1
    23     4     7    1
    24    10    12    1
    25    12    13   ar
    26    13    14   ar
    27    14    15   ar
    28    15    16    1
    29    15    17   ar
    30    17    18   ar
    31    18    19    1
    32    19    20   am
    33    19    21    2
    34    33    25    1
    35    18    12   ar
    36    32    27    1
    37     2     3    1
    38    20    22    1
    39    20    23    1
@<TRIPOS>MOLECULE
*****
 37 39 0 0 0
SMALL
GASTEIGER

@<TRIPOS>ATOM
      1 C          61.2939   89.3904   11.2955 C.3     1  UNL1        0.1812
      2 O          62.7217   89.0231   11.0192 O.3     1  UNL1       -0.3784
      3 H          62.7977   88.0596   10.9370 H       1  UNL1        0.2106
      4 C          59.8661   89.7576   11.5718 C.3     1  UNL1        0.4197
      5 F          58.4382   90.1249   11.8481 F       1  UNL1       -0.1676
      6 F          59.7121   88.5257   12.4137 F       1  UNL1       -0.1676
      7 F          60.0200   90.9895   10.7299 F       1  UNL1       -0.1676
      8 C          60.9136   87.9398   11.2584 C.3     1  UNL1        0.0398
      9 C          61.2671   85.8841   10.8723 C.3     1  UNL1        0.0045
     10 C          61.1894   87.1233   10.0307 C.3     1  UNL1        0.0216
     11 C          61.1118   88.3626    9.1891 C.3     1  UNL1        0.0045
     12 C          61.4652   86.3068    8.8030 C.ar    1  UNL1       -0.0183
     13 C          62.7475   85.5372    8.6865 C.ar    1  UNL1       -0.0033
     14 C          63.0234   84.7207    7.4588 C.ar    1  UNL1        0.0111
     15 C          62.0169   84.6739    6.3475 C.ar    1  UNL1        0.0578
     16 CL         62.2927   83.8574    5.1198 Cl      1  UNL1       -0.0822
     17 C          60.7347   85.4434    6.4640 C.ar    1  UNL1        0.0156
     18 C          60.4589   86.2599    7.6917 C.ar    1  UNL1        0.0500
     19 C          59.1766   87.0296    7.8081 C.2     1  UNL1        0.2425
     20 N          58.9140   88.1917    6.8969 N.am    1  UNL1       -0.3253
     21 O          58.1569   86.6369    8.8358 O.2     1  UNL1       -0.2704
     22 H          59.5833   88.4494    6.2224 H       1  UNL1        0.1453
     23 H          58.0724   88.6968    6.9733 H       1  UNL1        0.1453
     24 C          61.6742   90.8409   11.3326 C.3     1  UNL1        0.0811
     25 C          63.0409   91.2462   11.7991 C.2     1  UNL1        0.0613
     26 C          63.5565   91.1530   13.2047 C.2     1  UNL1        0.0161
     27 C          64.9663   91.6650   13.2163 C.2     1  UNL1        0.0195
     28 C          65.9720   91.8112   14.3195 C.2     1  UNL1        0.0388
     29 C          67.3337   92.3671   14.0243 C.2     1  UNL1        0.1823
     30 N          67.6895   92.7767   12.6259 N.2     1  UNL1       -0.2468
     31 C          66.6838   92.6305   11.5227 C.3     1  UNL1        0.1722
     32 C          65.3222   92.0747   11.8178 C.2     1  UNL1        0.0833
     33 N          64.1322   91.8158   10.9420 N.2     1  UNL1       -0.2519
     34 S          68.3394   92.5132   15.1276 S.O2    1  UNL1        0.0265
     35 C          69.3451   92.6594   16.2308 C.3     1  UNL1        0.1834
     36 O          67.2296   92.5348   16.1364 O.2     1  UNL1       -0.1671
     37 O          69.4492   92.4917   14.1187 O.2     1  UNL1       -0.1671
@<TRIPOS>BOND
     1     9    10    1
     2    10    11    1
     3    10     8    1
     4     8     1    1
     5     1     2    1
     6     1    24    1
     7    24    25    1
     8    25    26    2
     9    26    27    1
    10    27    28    2
    11    28    29    1
    12    29    34    1
    13    34    35    1
    14    34    36    2
    15    34    37    2
    16    29    30    2
    17    30    31    1
    18    31    32    1
    19    32    33    2
    20     1     4    1
    21     4     5    1
    22     4     6    1
    23     4     7    1
    24    10    12    1
    25    12    13   ar
    26    13    14   ar
    27    14    15   ar
    28    15    16    1
    29    15    17   ar
    30    17    18   ar
    31    18    19    1
    32    19    20   am
    33    19    21    2
    34    33    25    1
    35    18    12   ar
    36    32    27    1
    37     2     3    1
    38    20    22    1
    39    20    23    1
@<TRIPOS>MOLECULE
*****
 37 39 0 0 0
SMALL
GASTEIGER

@<TRIPOS>ATOM
      1 C          62.4150   87.2134   11.2044 C.3     1  UNL1        0.1812
      2 O          63.2643   86.8061   12.3718 O.3     1  UNL1       -0.3784
      3 H          63.7026   85.9635   12.1744 H       1  UNL1        0.2106
      4 C          61.5658   87.6208   10.0371 C.3     1  UNL1        0.4197
      5 F          60.7164   88.0281    8.8697 F       1  UNL1       -0.1676
      6 F          62.6810   87.2617    9.1003 F       1  UNL1       -0.1676
      7 F          60.4505   87.9798   10.9737 F       1  UNL1       -0.1676
      8 C          62.8336   85.9755   10.4679 C.3     1  UNL1        0.0398
      9 C          61.5446   85.0062   11.8458 C.3     1  UNL1        0.0045
     10 C          62.8351   84.6497   11.1696 C.3     1  UNL1        0.0216
     11 C          64.1257   84.2933   10.4933 C.3     1  UNL1        0.0045
     12 C          62.8367   83.3240   11.8713 C.ar    1  UNL1       -0.0183
     13 C          62.5385   82.0694   11.1049 C.ar    1  UNL1       -0.0033
     14 C          62.5401   80.7437   11.8066 C.ar    1  UNL1        0.0111
     15 C          62.8398   80.6725   13.2746 C.ar    1  UNL1        0.0578
     16 CL         62.8413   79.3467   13.9763 Cl      1  UNL1       -0.0822
     17 C          63.1380   81.9270   14.0409 C.ar    1  UNL1        0.0156
     18 C          63.1364   83.2527   13.3392 C.ar    1  UNL1        0.0500
     19 C          63.4346   84.5073   14.1056 C.2     1  UNL1        0.2425
     20 N          62.4101   85.0752   15.0425 N.am    1  UNL1       -0.3253
     21 O          64.7573   85.1938   13.9351 O.2     1  UNL1       -0.2704
     22 H          61.5419   84.6246   15.1544 H       1  UNL1        0.1453
     23 H          62.6058   85.8986   15.5455 H       1  UNL1        0.1453
     24 C          61.9965   88.4513   11.9409 C.3     1  UNL1        0.0811
     25 C          63.0233   89.4682   12.3427 C.2     1  UNL1        0.0613
     26 C          63.8591   89.4329   13.5878 C.2     1  UNL1        0.0161
     27 C          64.7470   90.6418   13.5846 C.2     1  UNL1        0.0195
     28 C          65.7798   91.1312   14.5561 C.2     1  UNL1        0.0388
     29 C          66.5256   92.4032   14.2805 C.2     1  UNL1        0.1823
     30 N          66.2386   93.1857   13.0334 N.2     1  UNL1       -0.2468
     31 C          65.2059   92.6963   12.0619 C.3     1  UNL1        0.1722
     32 C          64.4601   91.4244   12.3374 C.2     1  UNL1        0.0833
     33 N          63.3947   90.6990   11.5699 N.2     1  UNL1       -0.2519
     34 S          67.5583   92.8926   15.2520 S.O2    1  UNL1        0.0265
     35 C          68.5911   93.3821   16.2236 C.3     1  UNL1        0.1834
     36 O          68.5900   92.8771   14.1632 O.2     1  UNL1       -0.1671
     37 O          66.5267   92.9082   16.3408 O.2     1  UNL1       -0.1671
@<TRIPOS>BOND
     1     9    10    1
     2    10    11    1
     3    10     8    1
     4     8     1    1
     5     1     2    1
     6     1    24    1
     7    24    25    1
     8    25    26    2
     9    26    27    1
    10    27    28    2
    11    28    29    1
    12    29    34    1
    13    34    35    1
    14    34    36    2
    15    34    37    2
    16    29    30    2
    17    30    31    1
    18    31    32    1
    19    32    33    2
    20     1     4    1
    21     4     5    1
    22     4     6    1
    23     4     7    1
    24    10    12    1
    25    12    13   ar
    26    13    14   ar
    27    14    15   ar
    28    15    16    1
    29    15    17   ar
    30    17    18   ar
    31    18    19    1
    32    19    20   am
    33    19    21    2
    34    33    25    1
    35    18    12   ar
    36    32    27    1
    37     2     3    1
    38    20    22    1
    39    20    23    1
@<TRIPOS>MOLECULE
*****
 37 39 0 0 0
SMALL
GASTEIGER

@<TRIPOS>ATOM
      1 C          61.3212   89.3133   10.4379 C.3     1  UNL1        0.1812
      2 O          62.4700   88.5211    9.8879 O.3     1  UNL1       -0.3784
      3 H          62.3063   87.5752   10.0267 H       1  UNL1        0.2106
      4 C          60.1723   90.1055   10.9878 C.3     1  UNL1        0.4197
      5 F          59.0234   90.8978   11.5378 F       1  UNL1       -0.1676
      6 F          60.5815   89.7314   12.3817 F       1  UNL1       -0.1676
      7 F          59.7631   90.4797    9.5941 F       1  UNL1       -0.1676
      8 C          60.6464   88.0418   10.8600 C.3     1  UNL1        0.0398
      9 C          60.5061   86.0846   10.0540 C.3     1  UNL1        0.0045
     10 C          61.4442   86.7789   10.9963 C.3     1  UNL1        0.0216
     11 C          62.3823   87.4733   11.9386 C.3     1  UNL1        0.0045
     12 C          62.2420   85.5160   11.1327 C.ar    1  UNL1       -0.0183
     13 C          62.3831   84.8592   12.4739 C.ar    1  UNL1       -0.0033
     14 C          63.1809   83.5963   12.6103 C.ar    1  UNL1        0.0111
     15 C          63.8376   82.9902   11.4055 C.ar    1  UNL1        0.0578
     16 CL         64.6354   81.7273   11.5418 Cl      1  UNL1       -0.0822
     17 C          63.6965   83.6471   10.0644 C.ar    1  UNL1        0.0156
     18 C          62.8987   84.9100    9.9280 C.ar    1  UNL1        0.0500
     19 C          62.7576   85.5668    8.5868 C.2     1  UNL1        0.2425
     20 N          61.7416   85.0599    7.6066 N.am    1  UNL1       -0.3253
     21 O          63.6325   86.7306    8.2259 O.2     1  UNL1       -0.2704
     22 H          61.1674   84.2961    7.8435 H       1  UNL1        0.1453
     23 H          61.6490   85.4910    6.7264 H       1  UNL1        0.1453
     24 C          61.9959   90.5848   10.0158 C.3     1  UNL1        0.0811
     25 C          63.1762   91.0987   10.7857 C.2     1  UNL1        0.0613
     26 C          63.5118   90.7681   12.2098 C.2     1  UNL1        0.0161
     27 C          64.7712   91.4986   12.5709 C.2     1  UNL1        0.0195
     28 C          65.5720   91.5526   13.8381 C.2     1  UNL1        0.0388
     29 C          66.8156   92.3888   13.9043 C.2     1  UNL1        0.1823
     30 N          67.2584   93.1708   12.7033 N.2     1  UNL1       -0.2468
     31 C          66.4576   93.1167   11.4361 C.3     1  UNL1        0.1722
     32 C          65.2140   92.2806   11.3699 C.2     1  UNL1        0.0833
     33 N          64.2282   92.0335   10.2666 N.2     1  UNL1       -0.2519
     34 S          67.6164   92.4428   15.1715 S.O2    1  UNL1        0.0265
     35 C          68.4173   92.4969   16.4387 C.3     1  UNL1        0.1834
     36 O          68.8817   92.5134   14.3689 O.2     1  UNL1       -0.1671
     37 O          66.3512   92.3723   15.9741 O.2     1  UNL1       -0.1671
@<TRIPOS>BOND
     1     9    10    1
     2    10    11    1
     3    10     8    1
     4     8     1    1
     5     1     2    1
     6     1    24    1
     7    24    25    1
     8    25    26    2
     9    26    27    1
    10    27    28    2
    11    28    29    1
    12    29    34    1
    13    34    35    1
    14    34    36    2
    15    34    37    2
    16    29    30    2
    17    30    31    1
    18    31    32    1
    19    32    33    2
    20     1     4    1
    21     4     5    1
    22     4     6    1
    23     4     7    1
    24    10    12    1
    25    12    13   ar
    26    13    14   ar
    27    14    15   ar
    28    15    16    1
    29    15    17   ar
    30    17    18   ar
    31    18    19    1
    32    19    20   am
    33    19    21    2
    34    33    25    1
    35    18    12   ar
    36    32    27    1
    37     2     3    1
    38    20    22    1
    39    20    23    1
@<TRIPOS>MOLECULE
*****
 37 39 0 0 0
SMALL
GASTEIGER

@<TRIPOS>ATOM
      1 C          62.0850   89.3040   10.8010 C.3     1  UNL1        0.1812
      2 O          63.3186   88.8894   11.5468 O.3     1  UNL1       -0.3784
      3 H          63.6151   89.6195   12.1125 H       1  UNL1        0.2106
      4 C          60.8514   89.7185   10.0552 C.3     1  UNL1        0.4197
      5 F          59.6177   90.1331    9.3094 F       1  UNL1       -0.1676
      6 F          61.3009   88.9198    8.8677 F       1  UNL1       -0.1676
      7 F          60.4019   90.5172   11.2426 F       1  UNL1       -0.1676
      8 C          62.1351   90.6481   11.4651 C.3     1  UNL1        0.0398
      9 C          62.7137   90.8781   13.4930 C.3     1  UNL1        0.0045
     10 C          63.3839   91.0912   12.1681 C.3     1  UNL1        0.0216
     11 C          64.0541   91.3043   10.8431 C.3     1  UNL1        0.0045
     12 C          64.6327   91.5343   12.8710 C.ar    1  UNL1       -0.0183
     13 C          65.4611   92.6463   12.2989 C.ar    1  UNL1       -0.0033
     14 C          66.7099   93.0894   13.0019 C.ar    1  UNL1        0.0111
     15 C          67.1303   92.4205   14.2770 C.ar    1  UNL1        0.0578
     16 CL         68.3791   92.8636   14.9799 Cl      1  UNL1       -0.0822
     17 C          66.3020   91.3085   14.8490 C.ar    1  UNL1        0.0156
     18 C          65.0532   90.8654   14.1461 C.ar    1  UNL1        0.0500
     19 C          64.2248   89.7534   14.7182 C.2     1  UNL1        0.2425
     20 N          64.3040   88.3777   14.1255 N.am    1  UNL1       -0.3253
     21 O          63.3173   90.0170   15.8831 O.2     1  UNL1       -0.2704
     22 H          64.8997   88.2047   13.3610 H       1  UNL1        0.1453
     23 H          63.7604   87.6479   14.5010 H       1  UNL1        0.1453
     24 C          62.0348   87.9599   10.1370 C.3     1  UNL1        0.0811
     25 C          62.2692   86.7163   10.9422 C.2     1  UNL1        0.0613
     26 C          62.0364   85.3088   10.4787 C.2     1  UNL1        0.0161
     27 C          62.4009   84.3844   11.6024 C.2     1  UNL1        0.0195
     28 C          62.3749   82.8893   11.7208 C.2     1  UNL1        0.0388
     29 C          62.8069   82.2304   12.9972 C.2     1  UNL1        0.1823
     30 N          63.2649   83.0666   14.1552 N.2     1  UNL1       -0.2468
     31 C          63.2910   84.5617   14.0368 C.3     1  UNL1        0.1722
     32 C          62.8590   85.2206   12.7605 C.2     1  UNL1        0.0833
     33 N          62.7776   86.6618   12.3524 N.2     1  UNL1       -0.2519
     34 S          62.7809   80.7353   13.1156 S.O2    1  UNL1        0.0265
     35 C          62.7548   79.2402   13.2340 C.3     1  UNL1        0.1834
     36 O          62.7880   80.6168   11.6203 O.2     1  UNL1       -0.1671
     37 O          62.7738   80.8538   14.6109 O.2     1  UNL1       -0.1671
@<TRIPOS>BOND
     1     9    10    1
     2    10    11    1
     3    10     8    1
     4     8     1    1
     5     1     2    1
     6     1    24    1
     7    24    25    1
     8    25    26    2
     9    26    27    1
    10    27    28    2
    11    28    29    1
    12    29    34    1
    13    34    35    1
    14    34    36    2
    15    34    37    2
    16    29    30    2
    17    30    31    1
    18    31    32    1
    19    32    33    2
    20     1     4    1
    21     4     5    1
    22     4     6    1
    23     4     7    1
    24    10    12    1
    25    12    13   ar
    26    13    14   ar
    27    14    15   ar
    28    15    16    1
    29    15    17   ar
    30    17    18   ar
    31    18    19    1
    32    19    20   am
    33    19    21    2
    34    33    25    1
    35    18    12   ar
    36    32    27    1
    37     2     3    1
    38    20    22    1
    39    20    23    1
@<TRIPOS>MOLECULE
*****
 37 39 0 0 0
SMALL
GASTEIGER

@<TRIPOS>ATOM
      1 C          61.3936   88.1756    9.1880 C.3     1  UNL1        0.1812
      2 O          62.7267   88.0852    9.8697 O.3     1  UNL1       -0.3784
      3 H          63.1392   87.2324    9.6614 H       1  UNL1        0.2106
      4 C          60.0605   88.2659    8.5064 C.3     1  UNL1        0.4197
      5 F          58.7274   88.3563    7.8247 F       1  UNL1       -0.1676
      6 F          60.5064   87.2475    7.4993 F       1  UNL1       -0.1676
      7 F          59.6146   89.2842    9.5134 F       1  UNL1       -0.1676
      8 C          61.5989   86.8087    8.6053 C.3     1  UNL1        0.0398
      9 C          63.4178   85.7202    8.5220 C.3     1  UNL1        0.0045
     10 C          62.2265   85.7268    9.4335 C.3     1  UNL1        0.0216
     11 C          61.0352   85.7335   10.3449 C.3     1  UNL1        0.0045
     12 C          62.8540   84.6450   10.2616 C.ar    1  UNL1       -0.0183
     13 C          63.2468   83.3451    9.6243 C.ar    1  UNL1       -0.0033
     14 C          63.8744   82.2633   10.4525 C.ar    1  UNL1        0.0111
     15 C          64.1092   82.4814   11.9179 C.ar    1  UNL1        0.0578
     16 CL         64.7368   81.3996   12.7460 Cl      1  UNL1       -0.0822
     17 C          63.7164   83.7812   12.5551 C.ar    1  UNL1        0.0156
     18 C          63.0888   84.8631   11.7269 C.ar    1  UNL1        0.0500
     19 C          62.6961   86.1630   12.3642 C.2     1  UNL1        0.2425
     20 N          61.2838   86.6561   12.2532 N.am    1  UNL1       -0.3253
     21 O          63.7156   86.9696   13.1125 O.2     1  UNL1       -0.2704
     22 H          60.6147   86.1267   11.7621 H       1  UNL1        0.1453
     23 H          61.0261   87.5093   12.6715 H       1  UNL1        0.1453
     24 C          61.1883   89.5424    9.7707 C.3     1  UNL1        0.0811
     25 C          62.0721   90.0241   10.8828 C.2     1  UNL1        0.0613
     26 C          63.2467   90.9460   10.7392 C.2     1  UNL1        0.0161
     27 C          63.8372   91.1602   12.1014 C.2     1  UNL1        0.0195
     28 C          65.0074   91.9721   12.5717 C.2     1  UNL1        0.0388
     29 C          65.3681   91.9945   14.0276 C.2     1  UNL1        0.1823
     30 N          64.5584   91.2050   15.0130 N.2     1  UNL1       -0.2468
     31 C          63.3882   90.3931   14.5427 C.3     1  UNL1        0.1722
     32 C          63.0275   90.3707   13.0869 C.2     1  UNL1        0.0833
     33 N          61.9367   89.6685   12.3337 N.2     1  UNL1       -0.2519
     34 S          66.5383   92.8065   14.4979 S.O2    1  UNL1        0.0265
     35 C          67.7086   93.6184   14.9683 C.3     1  UNL1        0.1834
     36 O          67.0396   91.6299   15.2818 O.2     1  UNL1       -0.1671
     37 O          66.0371   93.9830   13.7141 O.2     1  UNL1       -0.1671
@<TRIPOS>BOND
     1     9    10    1
     2    10    11    1
     3    10     8    1
     4     8     1    1
     5     1     2    1
     6     1    24    1
     7    24    25    1
     8    25    26    2
     9    26    27    1
    10    27    28    2
    11    28    29    1
    12    29    34    1
    13    34    35    1
    14    34    36    2
    15    34    37    2
    16    29    30    2
    17    30    31    1
    18    31    32    1
    19    32    33    2
    20     1     4    1
    21     4     5    1
    22     4     6    1
    23     4     7    1
    24    10    12    1
    25    12    13   ar
    26    13    14   ar
    27    14    15   ar
    28    15    16    1
    29    15    17   ar
    30    17    18   ar
    31    18    19    1
    32    19    20   am
    33    19    21    2
    34    33    25    1
    35    18    12   ar
    36    32    27    1
    37     2     3    1
    38    20    22    1
    39    20    23    1
@<TRIPOS>MOLECULE
*****
 37 39 0 0 0
SMALL
GASTEIGER

@<TRIPOS>ATOM
      1 C          61.5359   88.9194   10.1795 C.3     1  UNL1        0.1812
      2 O          62.6640   88.3554   10.9914 O.3     1  UNL1       -0.3784
      3 H          62.8881   88.9721   11.7058 H       1  UNL1        0.2106
      4 C          60.4078   89.4834    9.3676 C.3     1  UNL1        0.4197
      5 F          59.2796   90.0474    8.5556 F       1  UNL1       -0.1676
      6 F          60.0991   90.4528   10.4699 F       1  UNL1       -0.1676
      7 F          60.7165   88.5140    8.2653 F       1  UNL1       -0.1676
      8 C          61.5045   90.1303   11.0642 C.3     1  UNL1        0.0398
      9 C          63.4213   90.7314   10.3827 C.3     1  UNL1        0.0045
     10 C          62.7631   90.6092   11.7250 C.3     1  UNL1        0.0216
     11 C          62.1048   90.4871   13.0673 C.3     1  UNL1        0.0045
     12 C          64.0217   91.0881   12.3857 C.ar    1  UNL1       -0.0183
     13 C          64.7410   92.2894   11.8476 C.ar    1  UNL1       -0.0033
     14 C          65.9996   92.7683   12.5083 C.ar    1  UNL1        0.0111
     15 C          66.5388   92.0459   13.7073 C.ar    1  UNL1        0.0578
     16 CL         67.7974   92.5249   14.3680 Cl      1  UNL1       -0.0822
     17 C          65.8196   90.8447   14.2454 C.ar    1  UNL1        0.0156
     18 C          64.5610   90.3658   13.5846 C.ar    1  UNL1        0.0500
     19 C          63.8417   89.1645   14.1228 C.2     1  UNL1        0.2425
     20 N          63.1380   89.2418   15.4452 N.am    1  UNL1       -0.3253
     21 O          63.8261   87.8860   13.3385 O.2     1  UNL1       -0.2704
     22 H          63.1482   90.0809   15.9599 H       1  UNL1        0.1453
     23 H          62.6659   88.4533   15.7984 H       1  UNL1        0.1453
     24 C          61.5673   87.7085    9.2947 C.3     1  UNL1        0.0811
     25 C          62.0796   86.4034    9.8277 C.2     1  UNL1        0.0613
     26 C          61.6275   85.7272   11.0881 C.2     1  UNL1        0.0161
     27 C          62.4025   84.4512   11.2332 C.2     1  UNL1        0.0195
     28 C          62.3806   83.3771   12.2801 C.2     1  UNL1        0.0388
     29 C          63.2899   82.1905   12.1563 C.2     1  UNL1        0.1823
     30 N          64.2209   82.0780   10.9857 N.2     1  UNL1       -0.2468
     31 C          64.2428   83.1520    9.9388 C.3     1  UNL1        0.1722
     32 C          63.3336   84.3386   10.0625 C.2     1  UNL1        0.0833
     33 N          63.1340   85.5451    9.1938 N.2     1  UNL1       -0.2519
     34 S          63.2681   81.1165   13.2032 S.O2    1  UNL1        0.0265
     35 C          63.2462   80.0425   14.2501 C.3     1  UNL1        0.1834
     36 O          63.7969   82.0908   14.2137 O.2     1  UNL1       -0.1671
     37 O          62.7393   80.1422   12.1927 O.2     1  UNL1       -0.1671
@<TRIPOS>BOND
     1     9    10    1
     2    10    11    1
     3    10     8    1
     4     8     1    1
     5     1     2    1
     6     1    24    1
     7    24    25    1
     8    25    26    2
     9    26    27    1
    10    27    28    2
    11    28    29    1
    12    29    34    1
    13    34    35    1
    14    34    36    2
    15    34    37    2
    16    29    30    2
    17    30    31    1
    18    31    32    1
    19    32    33    2
    20     1     4    1
    21     4     5    1
    22     4     6    1
    23     4     7    1
    24    10    12    1
    25    12    13   ar
    26    13    14   ar
    27    14    15   ar
    28    15    16    1
    29    15    17   ar
    30    17    18   ar
    31    18    19    1
    32    19    20   am
    33    19    21    2
    34    33    25    1
    35    18    12   ar
    36    32    27    1
    37     2     3    1
    38    20    22    1
    39    20    23    1
@<TRIPOS>MOLECULE
*****
 37 39 0 0 0
SMALL
GASTEIGER

@<TRIPOS>ATOM
      1 C          61.3470   89.3639   11.6105 C.3     1  UNL1        0.1812
      2 O          62.7879   88.9477   11.5930 O.3     1  UNL1       -0.3784
      3 H          62.9361   88.3261   10.8633 H       1  UNL1        0.2106
      4 C          59.9060   89.7801   11.6280 C.3     1  UNL1        0.4197
      5 F          58.4649   90.1963   11.6454 F       1  UNL1       -0.1676
      6 F          59.8810   89.6313   13.1204 F       1  UNL1       -0.1676
      7 F          59.9309   89.9289   10.1356 F       1  UNL1       -0.1676
      8 C          61.0805   88.4914   10.4198 C.3     1  UNL1        0.0398
      9 C          60.6580   86.5080   11.0426 C.3     1  UNL1        0.0045
     10 C          61.7747   87.1681   10.2893 C.3     1  UNL1        0.0216
     11 C          62.8913   87.8282    9.5360 C.3     1  UNL1        0.0045
     12 C          62.4689   85.8448   10.1588 C.ar    1  UNL1       -0.0183
     13 C          62.6369   85.2161    8.8072 C.ar    1  UNL1       -0.0033
     14 C          63.3311   83.8929    8.6767 C.ar    1  UNL1        0.0111
     15 C          63.8573   83.1983    9.8978 C.ar    1  UNL1        0.0578
     16 CL         64.5515   81.8750    9.7672 Cl      1  UNL1       -0.0822
     17 C          63.6892   83.8270   11.2492 C.ar    1  UNL1        0.0156
     18 C          62.9950   85.1503   11.3797 C.ar    1  UNL1        0.0500
     19 C          62.8269   85.7790   12.7312 C.2     1  UNL1        0.2425
     20 N          62.0122   85.0876   13.7839 N.am    1  UNL1       -0.3253
     21 O          63.4736   87.0990   13.0300 O.2     1  UNL1       -0.2704
     22 H          61.5878   84.2212   13.5878 H       1  UNL1        0.1453
     23 H          61.9019   85.5002   14.6710 H       1  UNL1        0.1453
     24 C          61.6134   90.2364   12.8012 C.3     1  UNL1        0.0811
     25 C          62.9659   90.8575   12.9881 C.2     1  UNL1        0.0613
     26 C          63.7442   90.9063   14.2696 C.2     1  UNL1        0.0161
     27 C          65.0369   91.6179   14.0000 C.2     1  UNL1        0.0195
     28 C          66.1978   91.9603   14.8859 C.2     1  UNL1        0.0388
     29 C          67.3795   92.6937   14.3238 C.2     1  UNL1        0.1823
     30 N          67.4001   93.0847   12.8759 N.2     1  UNL1       -0.2468
     31 C          66.2391   92.7423   11.9899 C.3     1  UNL1        0.1722
     32 C          65.0575   92.0089   12.5519 C.2     1  UNL1        0.0833
     33 N          63.7775   91.5390   11.9266 N.2     1  UNL1       -0.2519
     34 S          68.5404   93.0361   15.2098 S.O2    1  UNL1        0.0265
     35 C          69.7014   93.3785   16.0957 C.3     1  UNL1        0.1834
     36 O          69.4881   92.5253   14.1653 O.2     1  UNL1       -0.1671
     37 O          67.5927   93.5469   16.2543 O.2     1  UNL1       -0.1671
@<TRIPOS>BOND
     1     9    10    1
     2    10    11    1
     3    10     8    1
     4     8     1    1
     5     1     2    1
     6     1    24    1
     7    24    25    1
     8    25    26    2
     9    26    27    1
    10    27    28    2
    11    28    29    1
    12    29    34    1
    13    34    35    1
    14    34    36    2
    15    34    37    2
    16    29    30    2
    17    30    31    1
    18    31    32    1
    19    32    33    2
    20     1     4    1
    21     4     5    1
    22     4     6    1
    23     4     7    1
    24    10    12    1
    25    12    13   ar
    26    13    14   ar
    27    14    15   ar
    28    15    16    1
    29    15    17   ar
    30    17    18   ar
    31    18    19    1
    32    19    20   am
    33    19    21    2
    34    33    25    1
    35    18    12   ar
    36    32    27    1
    37     2     3    1
    38    20    22    1
    39    20    23    1
