@<TRIPOS>MOLECULE
*****
 33 36 0 0 0
SMALL
GASTEIGER

@<TRIPOS>ATOM
      1 C          64.0086   85.0117   14.1589 C.ar    1  UNL1        0.0207
      2 C          64.4898   86.1953   14.9447 C.ar    1  UNL1        0.0995
      3 N          64.2328   87.5846   14.4409 N.ar    1  UNL1       -0.2101
      4 C          63.4947   87.7903   13.1514 C.ar    1  UNL1        0.2310
      5 C          63.0135   86.6067   12.3656 C.ar    1  UNL1        0.0694
      6 C          63.2705   85.2173   12.8694 C.ar    1  UNL1        0.0051
      7 C          62.2754   86.8124   11.0761 C.ar    1  UNL1        0.0684
      8 C          62.2164   85.8463    9.9301 C.ar    1  UNL1        0.0150
      9 C          61.3712   86.4571    8.8520 C.ar    1  UNL1        0.0004
     10 C          61.0464   85.8338    7.5268 C.3     1  UNL1        0.0328
     11 C          60.9078   87.8007    9.3315 C.ar    1  UNL1        0.1165
     12 C          60.0491   88.8526    8.6942 C.ar    1  UNL1        0.2735
     13 O          59.4903   88.6330    7.3196 O.2     1  UNL1       -0.2656
     14 N          59.7493   90.1240    9.4314 N.ar    1  UNL1       -0.3175
     15 C          60.3081   90.3436   10.8060 C.ar    1  UNL1        0.0940
     16 C          61.1667   89.2917   11.4434 C.ar    1  UNL1        0.0990
     17 N          61.4666   88.0203   10.7061 N.ar    1  UNL1       -0.2999
     18 H          59.1857   90.8144    9.0131 H       1  UNL1        0.1691
     19 C          64.2655   83.6224   14.6626 C.3     1  UNL1        0.1787
     20 S          63.4823   82.4680   14.1112 S.O2    1  UNL1       -0.0058
     21 O          62.4342   82.6763   15.1638 O.2     1  UNL1       -0.1727
     22 O          64.5303   82.2596   13.0585 O.2     1  UNL1       -0.1727
     23 C          61.3003   81.0595   14.0383 C.3     1  UNL1        0.0271
     24 C          62.6991   81.3136   13.5598 C.3     1  UNL1        0.1513
     25 O          63.2378   89.1797   12.6477 O.3     1  UNL1       -0.4338
     26 C          64.1682   90.2961   13.0190 C.ar    1  UNL1        0.1746
     27 C          64.8594   90.2850   14.3501 C.ar    1  UNL1        0.0422
     28 C          65.7899   91.4015   14.7214 C.ar    1  UNL1        0.0329
     29 C          66.0290   92.5290   13.7615 C.ar    1  UNL1        0.1426
     30 F          66.9595   93.6455   14.1327 F       1  UNL1       -0.2041
     31 C          65.3377   92.5401   12.4302 C.ar    1  UNL1        0.0624
     32 C          64.4073   91.4237   12.0590 C.ar    1  UNL1        0.1767
     33 F          63.7160   91.4347   10.7278 F       1  UNL1       -0.2009
@<TRIPOS>BOND
     1    23    24    1
     2    24    20    1
     3    20    21    2
     4    20    22    2
     5    20    19    1
     6    19     1    1
     7     1     2   ar
     8     2     3   ar
     9     3     4   ar
    10     4    25    1
    11    25    26    1
    12    26    27   ar
    13    27    28   ar
    14    28    29   ar
    15    29    30    1
    16    29    31   ar
    17    31    32   ar
    18    32    33    1
    19     4     5   ar
    20     5     7    1
    21     7     8   ar
    22     8     9   ar
    23     9    10    1
    24     9    11   ar
    25    11    12   ar
    26    12    13    2
    27    12    14   ar
    28    14    15   ar
    29    15    16   ar
    30    16    17   ar
    31     5     6   ar
    32     6     1   ar
    33    32    26   ar
    34    17     7   ar
    35    17    11   ar
    36    14    18    1
@<TRIPOS>MOLECULE
*****
 33 36 0 0 0
SMALL
GASTEIGER

@<TRIPOS>ATOM
      1 C          65.6592   91.6451   13.0603 C.ar    1  UNL1        0.0207
      2 C          64.7077   91.9569   11.9434 C.ar    1  UNL1        0.0995
      3 N          63.4244   91.1910   11.8156 N.ar    1  UNL1       -0.2101
      4 C          63.0925   90.1132   12.8047 C.ar    1  UNL1        0.2310
      5 C          64.0439   89.8014   13.9216 C.ar    1  UNL1        0.0694
      6 C          65.3273   90.5674   14.0494 C.ar    1  UNL1        0.0051
      7 C          63.7120   88.7236   14.9107 C.ar    1  UNL1        0.0684
      8 C          63.3499   88.9303   16.3515 C.ar    1  UNL1        0.0150
      9 C          63.0981   87.5844   16.9639 C.ar    1  UNL1        0.0004
     10 C          62.7083   87.3228   18.3885 C.3     1  UNL1        0.0328
     11 C          63.3046   86.5458   15.9014 C.ar    1  UNL1        0.1165
     12 C          63.1962   85.0499   15.9256 C.ar    1  UNL1        0.2735
     13 O          62.8168   84.3458   17.1945 O.2     1  UNL1       -0.2656
     14 N          63.4671   84.2582   14.6807 N.ar    1  UNL1       -0.3175
     15 C          63.8466   84.9623   13.4118 C.ar    1  UNL1        0.0940
     16 C          63.9550   86.4581   13.3876 C.ar    1  UNL1        0.0990
     17 N          63.6840   87.2499   14.6325 N.ar    1  UNL1       -0.2999
     18 H          63.3960   83.2764   14.6966 H       1  UNL1        0.1691
     19 C          66.9425   92.4110   13.1882 C.3     1  UNL1        0.1787
     20 S          67.3496   92.9758   14.5168 S.O2    1  UNL1       -0.0058
     21 O          68.5455   92.0706   14.5352 O.2     1  UNL1       -0.1727
     22 O          66.1536   93.8810   14.4985 O.2     1  UNL1       -0.1727
     23 C          69.1761   93.9671   16.0760 C.3     1  UNL1        0.0271
     24 C          67.7566   93.5406   15.8455 C.3     1  UNL1        0.1513
     25 O          61.8091   89.3473   12.6768 O.3     1  UNL1       -0.4338
     26 C          61.3933   88.7974   11.3446 C.ar    1  UNL1        0.1746
     27 C          61.9607   87.4960   10.8603 C.ar    1  UNL1        0.0422
     28 C          61.5449   86.9461    9.5281 C.ar    1  UNL1        0.0329
     29 C          60.5618   87.6976    8.6802 C.ar    1  UNL1        0.1426
     30 F          60.1461   87.1476    7.3481 F       1  UNL1       -0.2041
     31 C          59.9944   88.9990    9.1646 C.ar    1  UNL1        0.0624
     32 C          60.4102   89.5489   10.4968 C.ar    1  UNL1        0.1767
     33 F          59.8429   90.8502   10.9812 F       1  UNL1       -0.2009
@<TRIPOS>BOND
     1    23    24    1
     2    24    20    1
     3    20    21    2
     4    20    22    2
     5    20    19    1
     6    19     1    1
     7     1     2   ar
     8     2     3   ar
     9     3     4   ar
    10     4    25    1
    11    25    26    1
    12    26    27   ar
    13    27    28   ar
    14    28    29   ar
    15    29    30    1
    16    29    31   ar
    17    31    32   ar
    18    32    33    1
    19     4     5   ar
    20     5     7    1
    21     7     8   ar
    22     8     9   ar
    23     9    10    1
    24     9    11   ar
    25    11    12   ar
    26    12    13    2
    27    12    14   ar
    28    14    15   ar
    29    15    16   ar
    30    16    17   ar
    31     5     6   ar
    32     6     1   ar
    33    32    26   ar
    34    17     7   ar
    35    17    11   ar
    36    14    18    1
@<TRIPOS>MOLECULE
*****
 33 36 0 0 0
SMALL
GASTEIGER

@<TRIPOS>ATOM
      1 C          63.2336   90.4005   11.6286 C.ar    1  UNL1        0.0207
      2 C          62.1742   90.6681   10.6010 C.ar    1  UNL1        0.0995
      3 N          61.3180   89.5446   10.0963 N.ar    1  UNL1       -0.2101
      4 C          61.5213   88.1535   10.6193 C.ar    1  UNL1        0.2310
      5 C          62.5806   87.8858   11.6469 C.ar    1  UNL1        0.0694
      6 C          63.4368   89.0094   12.1516 C.ar    1  UNL1        0.0051
      7 C          62.7839   86.4947   12.1699 C.ar    1  UNL1        0.0684
      8 C          62.3850   85.2254   11.4773 C.ar    1  UNL1        0.0150
      9 C          62.7763   84.0749   12.3567 C.ar    1  UNL1        0.0004
     10 C          62.5642   82.6213   12.0534 C.3     1  UNL1        0.0328
     11 C          63.4170   84.6332   13.5928 C.ar    1  UNL1        0.1165
     12 C          63.9967   83.9731   14.8085 C.ar    1  UNL1        0.2735
     13 O          63.9920   82.4775   14.9240 O.2     1  UNL1       -0.2656
     14 N          64.5811   84.8084   15.9088 N.ar    1  UNL1       -0.3175
     15 C          64.5857   86.3040   15.7933 C.ar    1  UNL1        0.0940
     16 C          64.0060   86.9641   14.5776 C.ar    1  UNL1        0.0990
     17 N          63.4216   86.1288   13.4773 N.ar    1  UNL1       -0.2999
     18 H          64.9616   84.3751   16.7067 H       1  UNL1        0.1691
     19 C          64.0897   91.5240   12.1333 C.3     1  UNL1        0.1787
     20 S          64.7680   91.4095   13.4663 S.O2    1  UNL1       -0.0058
     21 O          63.4315   91.2883   14.1361 O.2     1  UNL1       -0.1727
     22 O          66.1047   91.5306   12.7965 O.2     1  UNL1       -0.1727
     23 C          66.9097   91.5999   14.9246 C.3     1  UNL1        0.0271
     24 C          65.4464   91.2950   14.7993 C.3     1  UNL1        0.1513
     25 O          60.6651   87.0300   10.1146 O.3     1  UNL1       -0.4338
     26 C          61.0651   86.2785    8.8796 C.ar    1  UNL1        0.1746
     27 C          62.4769   85.7980    8.7184 C.ar    1  UNL1        0.0422
     28 C          62.8769   85.0465    7.4834 C.ar    1  UNL1        0.0329
     29 C          61.8652   84.7754    6.4096 C.ar    1  UNL1        0.1426
     30 F          62.2652   84.0239    5.1747 F       1  UNL1       -0.2041
     31 C          60.4533   85.2559    6.5709 C.ar    1  UNL1        0.0624
     32 C          60.0533   86.0074    7.8059 C.ar    1  UNL1        0.1767
     33 F          58.6415   86.4879    7.9672 F       1  UNL1       -0.2009
@<TRIPOS>BOND
     1    23    24    1
     2    24    20    1
     3    20    21    2
     4    20    22    2
     5    20    19    1
     6    19     1    1
     7     1     2   ar
     8     2     3   ar
     9     3     4   ar
    10     4    25    1
    11    25    26    1
    12    26    27   ar
    13    27    28   ar
    14    28    29   ar
    15    29    30    1
    16    29    31   ar
    17    31    32   ar
    18    32    33    1
    19     4     5   ar
    20     5     7    1
    21     7     8   ar
    22     8     9   ar
    23     9    10    1
    24     9    11   ar
    25    11    12   ar
    26    12    13    2
    27    12    14   ar
    28    14    15   ar
    29    15    16   ar
    30    16    17   ar
    31     5     6   ar
    32     6     1   ar
    33    32    26   ar
    34    17     7   ar
    35    17    11   ar
    36    14    18    1
@<TRIPOS>MOLECULE
*****
 33 36 0 0 0
SMALL
GASTEIGER

@<TRIPOS>ATOM
      1 C          64.0733   84.9107   13.9717 C.ar    1  UNL1        0.0207
      2 C          64.5830   86.1144   14.7074 C.ar    1  UNL1        0.0995
      3 N          64.2076   87.4909   14.2446 N.ar    1  UNL1       -0.2101
      4 C          63.3223   87.6638   13.0461 C.ar    1  UNL1        0.2310
      5 C          62.8125   86.4602   12.3103 C.ar    1  UNL1        0.0694
      6 C          63.1880   85.0836   12.7731 C.ar    1  UNL1        0.0051
      7 C          61.9273   86.6331   11.1118 C.ar    1  UNL1        0.0684
      8 C          60.7119   87.5085   11.0323 C.ar    1  UNL1        0.0150
      9 C          60.1355   87.3773    9.6537 C.ar    1  UNL1        0.0004
     10 C          58.9143   88.0793    9.1381 C.3     1  UNL1        0.0328
     11 C          60.9947   86.4208    8.8812 C.ar    1  UNL1        0.1165
     12 C          60.9118   85.9092    7.4736 C.ar    1  UNL1        0.2735
     13 O          59.8044   86.3691    6.5724 O.2     1  UNL1       -0.2656
     14 N          61.9363   84.9377    6.9671 N.ar    1  UNL1       -0.3175
     15 C          63.0437   84.4777    7.8683 C.ar    1  UNL1        0.0940
     16 C          63.1266   84.9893    9.2759 C.ar    1  UNL1        0.0990
     17 N          62.1021   85.9608    9.7823 N.ar    1  UNL1       -0.2999
     18 H          61.8819   84.6019    6.0433 H       1  UNL1        0.1691
     19 C          64.4487   83.5342   14.4344 C.3     1  UNL1        0.1787
     20 S          63.5994   82.3576   14.0543 S.O2    1  UNL1       -0.0058
     21 O          62.6912   82.6383   15.2144 O.2     1  UNL1       -0.1727
     22 O          64.5077   82.0769   12.8940 O.2     1  UNL1       -0.1727
     23 C          61.3189   81.1146   14.1177 C.3     1  UNL1        0.0271
     24 C          62.7502   81.1810   13.6740 C.3     1  UNL1        0.1513
     25 O          62.9469   89.0404   12.5833 O.3     1  UNL1       -0.4338
     26 C          63.8917   90.1862   12.7941 C.ar    1  UNL1        0.1746
     27 C          64.6466   90.3082   14.0845 C.ar    1  UNL1        0.0422
     28 C          65.5914   91.4540   14.2952 C.ar    1  UNL1        0.0329
     29 C          65.7813   92.4779   13.2156 C.ar    1  UNL1        0.1426
     30 F          66.7261   93.6237   13.4263 F       1  UNL1       -0.2041
     31 C          65.0263   92.3559   11.9251 C.ar    1  UNL1        0.0624
     32 C          64.0815   91.2101   11.7143 C.ar    1  UNL1        0.1767
     33 F          63.3265   91.0880   10.4240 F       1  UNL1       -0.2009
@<TRIPOS>BOND
     1    23    24    1
     2    24    20    1
     3    20    21    2
     4    20    22    2
     5    20    19    1
     6    19     1    1
     7     1     2   ar
     8     2     3   ar
     9     3     4   ar
    10     4    25    1
    11    25    26    1
    12    26    27   ar
    13    27    28   ar
    14    28    29   ar
    15    29    30    1
    16    29    31   ar
    17    31    32   ar
    18    32    33    1
    19     4     5   ar
    20     5     7    1
    21     7     8   ar
    22     8     9   ar
    23     9    10    1
    24     9    11   ar
    25    11    12   ar
    26    12    13    2
    27    12    14   ar
    28    14    15   ar
    29    15    16   ar
    30    16    17   ar
    31     5     6   ar
    32     6     1   ar
    33    32    26   ar
    34    17     7   ar
    35    17    11   ar
    36    14    18    1
@<TRIPOS>MOLECULE
*****
 33 36 0 0 0
SMALL
GASTEIGER

@<TRIPOS>ATOM
      1 C          61.4744   89.1543   10.5186 C.ar    1  UNL1        0.0207
      2 C          61.5984   87.7038   10.8801 C.ar    1  UNL1        0.0995
      3 N          62.5783   87.2741   11.9314 N.ar    1  UNL1       -0.2101
      4 C          63.4341   88.2948   12.6212 C.ar    1  UNL1        0.2310
      5 C          63.3101   89.7452   12.2597 C.ar    1  UNL1        0.0694
      6 C          62.3302   90.1750   11.2084 C.ar    1  UNL1        0.0051
      7 C          64.1659   90.7659   12.9495 C.ar    1  UNL1        0.0684
      8 C          64.4101   90.8587   14.4266 C.ar    1  UNL1        0.0150
      9 C          65.3229   92.0231   14.6732 C.ar    1  UNL1        0.0004
     10 C          65.8272   92.4805   16.0098 C.3     1  UNL1        0.0328
     11 C          65.6429   92.6500   13.3485 C.ar    1  UNL1        0.1165
     12 C          66.4929   93.8280   12.9748 C.ar    1  UNL1        0.2735
     13 O          67.2080   94.6050   14.0401 O.2     1  UNL1       -0.2656
     14 N          66.6279   94.2289   11.5357 N.ar    1  UNL1       -0.3175
     15 C          65.9128   93.4519   10.4704 C.ar    1  UNL1        0.0940
     16 C          65.0628   92.2739   10.8441 C.ar    1  UNL1        0.0990
     17 N          64.9278   91.8730   12.2832 N.ar    1  UNL1       -0.2999
     18 H          67.1858   95.0021   11.2904 H       1  UNL1        0.1691
     19 C          60.4946   89.5842    9.4674 C.3     1  UNL1        0.1787
     20 S          59.8170   88.5575    8.6091 S.O2    1  UNL1       -0.0058
     21 O          60.1664   89.3503    7.3847 O.2     1  UNL1       -0.1727
     22 O          59.4675   87.7646    9.8335 O.2     1  UNL1       -0.1727
     23 C          59.7708   86.1848    7.5517 C.3     1  UNL1        0.0271
     24 C          59.1393   87.5307    7.7509 C.3     1  UNL1        0.1513
     25 O          64.4139   87.8648   13.6725 O.3     1  UNL1       -0.4338
     26 C          63.9310   87.5094   15.0474 C.ar    1  UNL1        0.1746
     27 C          63.4589   88.5868   15.9783 C.ar    1  UNL1        0.0422
     28 C          62.9760   88.2314   17.3532 C.ar    1  UNL1        0.0329
     29 C          62.9653   86.7986   17.7973 C.ar    1  UNL1        0.1426
     30 F          62.4824   86.4433   19.1723 F       1  UNL1       -0.2041
     31 C          63.4375   85.7213   16.8664 C.ar    1  UNL1        0.0624
     32 C          63.9204   86.0767   15.4915 C.ar    1  UNL1        0.1767
     33 F          64.3925   84.9994   14.5606 F       1  UNL1       -0.2009
@<TRIPOS>BOND
     1    23    24    1
     2    24    20    1
     3    20    21    2
     4    20    22    2
     5    20    19    1
     6    19     1    1
     7     1     2   ar
     8     2     3   ar
     9     3     4   ar
    10     4    25    1
    11    25    26    1
    12    26    27   ar
    13    27    28   ar
    14    28    29   ar
    15    29    30    1
    16    29    31   ar
    17    31    32   ar
    18    32    33    1
    19     4     5   ar
    20     5     7    1
    21     7     8   ar
    22     8     9   ar
    23     9    10    1
    24     9    11   ar
    25    11    12   ar
    26    12    13    2
    27    12    14   ar
    28    14    15   ar
    29    15    16   ar
    30    16    17   ar
    31     5     6   ar
    32     6     1   ar
    33    32    26   ar
    34    17     7   ar
    35    17    11   ar
    36    14    18    1
@<TRIPOS>MOLECULE
*****
 33 36 0 0 0
SMALL
GASTEIGER

@<TRIPOS>ATOM
      1 C          63.7840   88.9309   13.3618 C.ar    1  UNL1        0.0207
      2 C          62.7805   89.7225   12.5768 C.ar    1  UNL1        0.0995
      3 N          61.8336   89.0222   11.6479 N.ar    1  UNL1       -0.2101
      4 C          61.8902   87.5302   11.5040 C.ar    1  UNL1        0.2310
      5 C          62.8936   86.7385   12.2889 C.ar    1  UNL1        0.0694
      6 C          63.8406   87.4389   13.2179 C.ar    1  UNL1        0.0051
      7 C          62.9502   85.2465   12.1450 C.ar    1  UNL1        0.0684
      8 C          63.2410   84.4930   10.8810 C.ar    1  UNL1        0.0150
      9 C          63.1965   83.0269   11.1947 C.ar    1  UNL1        0.0004
     10 C          63.4293   81.9095   10.2214 C.3     1  UNL1        0.0328
     11 C          62.8782   82.8742   12.6526 C.ar    1  UNL1        0.1165
     12 C          62.7073   81.6633   13.5212 C.ar    1  UNL1        0.2735
     13 O          62.8595   80.2915   12.9338 O.2     1  UNL1       -0.2656
     14 N          62.3843   81.8242   14.9771 N.ar    1  UNL1       -0.3175
     15 C          62.2321   83.1960   15.5644 C.ar    1  UNL1        0.0940
     16 C          62.4030   84.4069   14.6958 C.ar    1  UNL1        0.0990
     17 N          62.7260   84.2460   13.2399 N.ar    1  UNL1       -0.2999
     18 H          62.2721   81.0294   15.5472 H       1  UNL1        0.1691
     19 C          64.7309   89.6312   14.2907 C.3     1  UNL1        0.1787
     20 S          64.1969   90.4908   15.3979 S.O2    1  UNL1       -0.0058
     21 O          63.5265   89.2937   16.0040 O.2     1  UNL1       -0.1727
     22 O          64.8675   91.6879   14.7919 O.2     1  UNL1       -0.1727
     23 C          64.4783   92.4980   17.0233 C.3     1  UNL1        0.0271
     24 C          63.6630   91.3504   16.5052 C.3     1  UNL1        0.1513
     25 O          60.9432   86.8299   10.5750 O.3     1  UNL1       -0.4338
     26 C          60.4011   87.5482    9.3750 C.ar    1  UNL1        0.1746
     27 C          60.2559   89.0409    9.3966 C.ar    1  UNL1        0.0422
     28 C          59.7139   89.7592    8.1965 C.ar    1  UNL1        0.0329
     29 C          59.3169   88.9847    6.9748 C.ar    1  UNL1        0.1426
     30 F          58.7749   89.7030    5.7747 F       1  UNL1       -0.2041
     31 C          59.4621   87.4918    6.9532 C.ar    1  UNL1        0.0624
     32 C          60.0042   86.7736    8.1533 C.ar    1  UNL1        0.1767
     33 F          60.1494   85.2808    8.1317 F       1  UNL1       -0.2009
@<TRIPOS>BOND
     1    23    24    1
     2    24    20    1
     3    20    21    2
     4    20    22    2
     5    20    19    1
     6    19     1    1
     7     1     2   ar
     8     2     3   ar
     9     3     4   ar
    10     4    25    1
    11    25    26    1
    12    26    27   ar
    13    27    28   ar
    14    28    29   ar
    15    29    30    1
    16    29    31   ar
    17    31    32   ar
    18    32    33    1
    19     4     5   ar
    20     5     7    1
    21     7     8   ar
    22     8     9   ar
    23     9    10    1
    24     9    11   ar
    25    11    12   ar
    26    12    13    2
    27    12    14   ar
    28    14    15   ar
    29    15    16   ar
    30    16    17   ar
    31     5     6   ar
    32     6     1   ar
    33    32    26   ar
    34    17     7   ar
    35    17    11   ar
    36    14    18    1
@<TRIPOS>MOLECULE
*****
 33 36 0 0 0
SMALL
GASTEIGER

@<TRIPOS>ATOM
      1 C          61.1857   87.9524   10.0799 C.ar    1  UNL1        0.0207
      2 C          61.8564   89.2285   10.4943 C.ar    1  UNL1        0.0995
      3 N          62.8137   89.2319   11.6491 N.ar    1  UNL1       -0.2101
      4 C          63.1004   87.9593   12.3895 C.ar    1  UNL1        0.2310
      5 C          62.4298   86.6832   11.9752 C.ar    1  UNL1        0.0694
      6 C          61.4724   86.6797   10.8203 C.ar    1  UNL1        0.0051
      7 C          62.7164   85.4105   12.7156 C.ar    1  UNL1        0.0684
      8 C          62.5927   85.2049   14.1962 C.ar    1  UNL1        0.0150
      9 C          62.9769   83.7873   14.5010 C.ar    1  UNL1        0.0004
     10 C          62.9965   83.1518   15.8596 C.3     1  UNL1        0.0328
     11 C          63.3380   83.1168   13.2087 C.ar    1  UNL1        0.1165
     12 C          63.7927   81.7225   12.8942 C.ar    1  UNL1        0.2735
     13 O          63.9537   80.7193   13.9977 O.2     1  UNL1       -0.2656
     14 N          64.0863   81.3313   11.4762 N.ar    1  UNL1       -0.3175
     15 C          63.9253   82.3345   10.3727 C.ar    1  UNL1        0.0940
     16 C          63.4706   83.7289   10.6872 C.ar    1  UNL1        0.0990
     17 N          63.1770   84.1200   12.1052 N.ar    1  UNL1       -0.2999
     18 H          64.3847   80.4161   11.2698 H       1  UNL1        0.1691
     19 C          60.2284   87.9489    8.9252 C.3     1  UNL1        0.1787
     20 S          60.1428   86.7515    8.0257 S.O2    1  UNL1       -0.0058
     21 O          61.6330   86.5950    8.0922 O.2     1  UNL1       -0.1727
     22 O          58.6525   86.9080    7.9593 O.2     1  UNL1       -0.1727
     23 C          61.3103   84.8669    6.6711 C.3     1  UNL1        0.0271
     24 C          60.0571   85.5542    7.1262 C.3     1  UNL1        0.1513
     25 O          64.0578   87.9628   13.5443 O.3     1  UNL1       -0.4338
     26 C          64.1618   89.1699   14.4286 C.ar    1  UNL1        0.1746
     27 C          64.9147   90.3799   13.9605 C.ar    1  UNL1        0.0422
     28 C          65.0188   91.5870   14.8449 C.ar    1  UNL1        0.0329
     29 C          64.3700   91.5841   16.1973 C.ar    1  UNL1        0.1426
     30 F          64.4741   92.7912   17.0816 F       1  UNL1       -0.2041
     31 C          63.6171   90.3741   16.6654 C.ar    1  UNL1        0.0624
     32 C          63.5130   89.1670   15.7811 C.ar    1  UNL1        0.1767
     33 F          62.7601   87.9570   16.2491 F       1  UNL1       -0.2009
@<TRIPOS>BOND
     1    23    24    1
     2    24    20    1
     3    20    21    2
     4    20    22    2
     5    20    19    1
     6    19     1    1
     7     1     2   ar
     8     2     3   ar
     9     3     4   ar
    10     4    25    1
    11    25    26    1
    12    26    27   ar
    13    27    28   ar
    14    28    29   ar
    15    29    30    1
    16    29    31   ar
    17    31    32   ar
    18    32    33    1
    19     4     5   ar
    20     5     7    1
    21     7     8   ar
    22     8     9   ar
    23     9    10    1
    24     9    11   ar
    25    11    12   ar
    26    12    13    2
    27    12    14   ar
    28    14    15   ar
    29    15    16   ar
    30    16    17   ar
    31     5     6   ar
    32     6     1   ar
    33    32    26   ar
    34    17     7   ar
    35    17    11   ar
    36    14    18    1
@<TRIPOS>MOLECULE
*****
 33 36 0 0 0
SMALL
GASTEIGER

@<TRIPOS>ATOM
      1 C          60.2151   87.9232    9.9539 C.ar    1  UNL1        0.0207
      2 C          60.7218   89.1780   10.6010 C.ar    1  UNL1        0.0995
      3 N          61.8468   89.1098   11.5908 N.ar    1  UNL1       -0.2101
      4 C          62.4650   87.7868   11.9336 C.ar    1  UNL1        0.2310
      5 C          61.9584   86.5320   11.2866 C.ar    1  UNL1        0.0694
      6 C          60.8334   86.6002   10.2967 C.ar    1  UNL1        0.0051
      7 C          62.5767   85.2090   11.6293 C.ar    1  UNL1        0.0684
      8 C          63.2484   84.2741   10.6677 C.ar    1  UNL1        0.0150
      9 C          63.7186   83.0760   11.4380 C.ar    1  UNL1        0.0004
     10 C          64.4428   81.8914   10.8703 C.3     1  UNL1        0.0328
     11 C          63.3375   83.2704   12.8757 C.ar    1  UNL1        0.1165
     12 C          63.5420   82.4174   14.0924 C.ar    1  UNL1        0.2735
     13 O          64.2478   81.0991   13.9741 O.2     1  UNL1       -0.2656
     14 N          63.0407   82.8826   15.4274 N.ar    1  UNL1       -0.3175
     15 C          62.3350   84.2009   15.5457 C.ar    1  UNL1        0.0940
     16 C          62.1305   85.0540   14.3289 C.ar    1  UNL1        0.0990
     17 N          62.6318   84.5887   12.9940 N.ar    1  UNL1       -0.2999
     18 H          63.1749   82.3228   16.2260 H       1  UNL1        0.1691
     19 C          59.0902   87.9913    8.9641 C.3     1  UNL1        0.1787
     20 S          59.3407   88.5089    7.5786 S.O2    1  UNL1       -0.0058
     21 O          59.4313   89.9059    8.1169 O.2     1  UNL1       -0.1727
     22 O          59.2500   87.1117    7.0403 O.2     1  UNL1       -0.1727
     23 C          58.9955   90.3337    5.7619 C.3     1  UNL1        0.0271
     24 C          59.5911   89.0264    6.1931 C.3     1  UNL1        0.1513
     25 O          63.5900   87.7187   12.9235 O.3     1  UNL1       -0.4338
     26 C          63.7559   88.8034   13.9462 C.ar    1  UNL1        0.1746
     27 C          63.4756   88.5199   15.3923 C.ar    1  UNL1        0.0422
     28 C          63.6415   89.6046   16.4150 C.ar    1  UNL1        0.0329
     29 C          64.0876   90.9727   15.9917 C.ar    1  UNL1        0.1426
     30 F          64.2534   92.0574   17.0145 F       1  UNL1       -0.2041
     31 C          64.3679   91.2562   14.5456 C.ar    1  UNL1        0.0624
     32 C          64.2020   90.1715   13.5228 C.ar    1  UNL1        0.1767
     33 F          64.4823   90.4549   12.0768 F       1  UNL1       -0.2009
@<TRIPOS>BOND
     1    23    24    1
     2    24    20    1
     3    20    21    2
     4    20    22    2
     5    20    19    1
     6    19     1    1
     7     1     2   ar
     8     2     3   ar
     9     3     4   ar
    10     4    25    1
    11    25    26    1
    12    26    27   ar
    13    27    28   ar
    14    28    29   ar
    15    29    30    1
    16    29    31   ar
    17    31    32   ar
    18    32    33    1
    19     4     5   ar
    20     5     7    1
    21     7     8   ar
    22     8     9   ar
    23     9    10    1
    24     9    11   ar
    25    11    12   ar
    26    12    13    2
    27    12    14   ar
    28    14    15   ar
    29    15    16   ar
    30    16    17   ar
    31     5     6   ar
    32     6     1   ar
    33    32    26   ar
    34    17     7   ar
    35    17    11   ar
    36    14    18    1
@<TRIPOS>MOLECULE
*****
 33 36 0 0 0
SMALL
GASTEIGER

@<TRIPOS>ATOM
      1 C          61.3241   89.1813   10.2236 C.ar    1  UNL1        0.0207
      2 C          61.3490   87.7109   10.5189 C.ar    1  UNL1        0.0995
      3 N          62.2192   87.1818   11.6202 N.ar    1  UNL1       -0.2101
      4 C          63.0645   88.1230   12.4260 C.ar    1  UNL1        0.2310
      5 C          63.0397   89.5934   12.1308 C.ar    1  UNL1        0.0694
      6 C          62.1694   90.1226   11.0295 C.ar    1  UNL1        0.0051
      7 C          63.8850   90.5347   12.9367 C.ar    1  UNL1        0.0684
      8 C          64.0058   90.5512   14.4317 C.ar    1  UNL1        0.0150
      9 C          64.9534   91.6514   14.8079 C.ar    1  UNL1        0.0004
     10 C          65.3641   92.0230   16.2020 C.3     1  UNL1        0.0328
     11 C          65.4183   92.3148   13.5455 C.ar    1  UNL1        0.1165
     12 C          66.3575   93.4582   13.2996 C.ar    1  UNL1        0.2735
     13 O          67.0178   94.1484   14.4561 O.2     1  UNL1       -0.2656
     14 N          66.6364   93.9113   11.8972 N.ar    1  UNL1       -0.3175
     15 C          65.9761   93.2211   10.7407 C.ar    1  UNL1        0.0940
     16 C          65.0369   92.0778   10.9865 C.ar    1  UNL1        0.0990
     17 N          64.7579   91.6246   12.3889 N.ar    1  UNL1       -0.2999
     18 H          67.2529   94.6618   11.7358 H       1  UNL1        0.1691
     19 C          60.4539   89.7106    9.1224 C.3     1  UNL1        0.1787
     20 S          59.6938   88.7606    8.2450 S.O2    1  UNL1       -0.0058
     21 O          60.0537   89.5826    7.0432 O.2     1  UNL1       -0.1727
     22 O          59.3338   87.9385    9.4469 O.2     1  UNL1       -0.1727
     23 C          59.1821   86.3347    7.4683 C.3     1  UNL1        0.0271
     24 C          58.9336   87.8106    7.3677 C.3     1  UNL1        0.1513
     25 O          63.9347   87.5937   13.5273 O.3     1  UNL1       -0.4338
     26 C          63.9131   86.1321   13.8636 C.ar    1  UNL1        0.1746
     27 C          63.9382   85.1096   12.7664 C.ar    1  UNL1        0.0422
     28 C          63.9166   83.6480   13.1027 C.ar    1  UNL1        0.0329
     29 C          63.8698   83.2088   14.5362 C.ar    1  UNL1        0.1426
     30 F          63.8482   81.7472   14.8725 F       1  UNL1       -0.2041
     31 C          63.8447   84.2314   15.6335 C.ar    1  UNL1        0.0624
     32 C          63.8663   85.6930   15.2972 C.ar    1  UNL1        0.1767
     33 F          63.8412   86.7156   16.3943 F       1  UNL1       -0.2009
@<TRIPOS>BOND
     1    23    24    1
     2    24    20    1
     3    20    21    2
     4    20    22    2
     5    20    19    1
     6    19     1    1
     7     1     2   ar
     8     2     3   ar
     9     3     4   ar
    10     4    25    1
    11    25    26    1
    12    26    27   ar
    13    27    28   ar
    14    28    29   ar
    15    29    30    1
    16    29    31   ar
    17    31    32   ar
    18    32    33    1
    19     4     5   ar
    20     5     7    1
    21     7     8   ar
    22     8     9   ar
    23     9    10    1
    24     9    11   ar
    25    11    12   ar
    26    12    13    2
    27    12    14   ar
    28    14    15   ar
    29    15    16   ar
    30    16    17   ar
    31     5     6   ar
    32     6     1   ar
    33    32    26   ar
    34    17     7   ar
    35    17    11   ar
    36    14    18    1
