@<TRIPOS>MOLECULE
*****
 24 26 0 0 0
SMALL
GASTEIGER

@<TRIPOS>ATOM
      1 C          63.9321   88.0689   13.7151 C.2     1  UNL1        0.3580
      2 N          63.0848   87.7002   12.5335 N.2     1  UNL1       -0.0039
      3 C          62.6361   88.7608   11.5723 C.2     1  UNL1        0.3159
      4 C          63.0348   90.1899   11.7927 C.3     1  UNL1        0.2333
      5 C          63.8821   90.5586   12.9742 C.2     1  UNL1        0.3644
      6 O          64.2808   91.9877   13.1945 O.2     1  UNL1       -0.2422
      7 N          64.3308   89.4980   13.9354 N.am    1  UNL1        0.0289
      8 N          61.7887   88.3921   10.3907 N.pl3   1  UNL1       -0.1888
      9 C          61.8105   86.9891    9.8607 C.3     1  UNL1        0.2343
     10 C          60.9632   86.6204    8.6792 C.3     1  UNL1        0.1929
     11 O          60.0939   87.6549    8.0276 O.3     1  UNL1       -0.3449
     12 C          60.0721   89.0579    8.5577 C.3     1  UNL1        0.1929
     13 C          60.9195   89.4266    9.7393 C.3     1  UNL1        0.2343
     14 C          64.3808   87.0083   14.6763 C.3     1  UNL1        0.2066
     15 O          65.3994   84.6301   14.4390 O.2     1  UNL1       -0.2741
     16 C          64.2281   85.5595   14.3195 C.2     1  UNL1        0.2387
     17 N          62.9040   85.0399   13.8431 N.am    1  UNL1       -0.2834
     18 H          62.1352   85.6499   13.7647 H       1  UNL1        0.1549
     19 C          62.7512   83.5910   13.4863 C.ar    1  UNL1        0.0503
     20 C          62.2721   82.6114   14.5162 C.ar    1  UNL1        0.0147
     21 C          62.1194   81.1625   14.1594 C.ar    1  UNL1        0.0013
     22 C          62.4458   80.6932   12.7725 C.ar    1  UNL1        0.0001
     23 C          62.9249   81.6728   11.7426 C.ar    1  UNL1        0.0013
     24 C          63.0776   83.1218   12.0995 C.ar    1  UNL1        0.0147
@<TRIPOS>BOND
     1    15    16    2
     2    16    14    1
     3    14     1    1
     4     1     2    1
     5     2     3    2
     6     3     8    1
     7     8     9    1
     8     9    10    1
     9    10    11    1
    10    11    12    1
    11    12    13    1
    12     3     4    1
    13     4     5    1
    14     5     6    2
    15     5     7    1
    16    16    17   am
    17    17    19    1
    18    19    20   ar
    19    20    21   ar
    20    21    22   ar
    21    22    23   ar
    22    23    24   ar
    23     7     1    2
    24    24    19   ar
    25    13     8    1
    26    17    18    1
@<TRIPOS>MOLECULE
*****
 24 26 0 0 0
SMALL
GASTEIGER

@<TRIPOS>ATOM
      1 C          64.0527   88.0155   13.9985 C.2     1  UNL1        0.3580
      2 N          64.7635   89.3159   14.2303 N.2     1  UNL1       -0.0039
      3 C          64.5577   90.4620   13.2847 C.2     1  UNL1        0.3159
      4 C          63.6411   90.3077   12.1075 C.3     1  UNL1        0.2333
      5 C          62.9302   89.0073   11.8757 C.2     1  UNL1        0.3644
      6 O          62.0136   88.8530   10.6985 O.2     1  UNL1       -0.2422
      7 N          63.1360   87.8613   12.8213 N.am    1  UNL1        0.0289
      8 N          65.2686   91.7624   13.5164 N.pl3   1  UNL1       -0.1888
      9 C          65.4378   92.7361   12.3880 C.3     1  UNL1        0.2343
     10 C          66.1486   94.0364   12.6196 C.3     1  UNL1        0.1929
     11 O          66.6902   94.3632   13.9797 O.3     1  UNL1       -0.3449
     12 C          66.5210   93.3896   15.1082 C.3     1  UNL1        0.1929
     13 C          65.8102   92.0892   14.8765 C.3     1  UNL1        0.2343
     14 C          64.2585   86.8694   14.9441 C.3     1  UNL1        0.2066
     15 O          65.3892   84.6025   14.3671 O.2     1  UNL1       -0.2741
     16 C          64.1597   85.4583   14.4450 C.2     1  UNL1        0.2387
     17 N          62.8314   84.9030   14.0238 N.am    1  UNL1       -0.2834
     18 H          62.0245   85.4646   14.0750 H       1  UNL1        0.1549
     19 C          62.7327   83.4919   13.5247 C.ar    1  UNL1        0.0503
     20 C          63.0680   83.1761   12.0972 C.ar    1  UNL1        0.0147
     21 C          62.9692   81.7651   11.5981 C.ar    1  UNL1        0.0013
     22 C          62.5351   80.6698   12.5266 C.ar    1  UNL1        0.0001
     23 C          62.1997   80.9856   13.9541 C.ar    1  UNL1        0.0013
     24 C          62.2985   82.3967   14.4531 C.ar    1  UNL1        0.0147
@<TRIPOS>BOND
     1    15    16    2
     2    16    14    1
     3    14     1    1
     4     1     2    1
     5     2     3    2
     6     3     8    1
     7     8     9    1
     8     9    10    1
     9    10    11    1
    10    11    12    1
    11    12    13    1
    12     3     4    1
    13     4     5    1
    14     5     6    2
    15     5     7    1
    16    16    17   am
    17    17    19    1
    18    19    20   ar
    19    20    21   ar
    20    21    22   ar
    21    22    23   ar
    22    23    24   ar
    23     7     1    2
    24    24    19   ar
    25    13     8    1
    26    17    18    1
@<TRIPOS>MOLECULE
*****
 24 26 0 0 0
SMALL
GASTEIGER

@<TRIPOS>ATOM
      1 C          63.7341   83.2876   11.6836 C.2     1  UNL1        0.3580
      2 N          63.6464   84.4691   12.6036 N.2     1  UNL1       -0.0039
      3 C          63.5563   84.2601   14.0862 C.2     1  UNL1        0.3159
      4 C          63.5537   82.8696   14.6488 C.3     1  UNL1        0.2333
      5 C          63.6414   81.6881   13.7289 C.2     1  UNL1        0.3644
      6 O          63.6389   80.2977   14.2916 O.2     1  UNL1       -0.2422
      7 N          63.7316   81.8971   12.2463 N.am    1  UNL1        0.0289
      8 N          63.4686   85.4416   15.0062 N.pl3   1  UNL1       -0.1888
      9 C          62.7938   85.3059   16.3390 C.3     1  UNL1        0.2343
     10 C          62.7061   86.4874   17.2590 C.3     1  UNL1        0.1929
     11 O          63.2932   87.8046   16.8462 O.3     1  UNL1       -0.3449
     12 C          63.9680   87.9403   15.5134 C.3     1  UNL1        0.1929
     13 C          64.0556   86.7588   14.5934 C.3     1  UNL1        0.2343
     14 C          63.8243   83.4965   10.2009 C.3     1  UNL1        0.2066
     15 O          63.3875   85.0055    8.1317 O.2     1  UNL1       -0.2741
     16 C          63.1052   84.6466    9.5605 C.2     1  UNL1        0.2387
     17 N          62.1039   85.4378   10.3488 N.am    1  UNL1       -0.2834
     18 H          61.9187   85.2022   11.2866 H       1  UNL1        0.1549
     19 C          61.3849   86.5879    9.7084 C.ar    1  UNL1        0.0503
     20 C          61.7614   87.9968   10.0592 C.ar    1  UNL1        0.0147
     21 C          61.0424   89.1469    9.4187 C.ar    1  UNL1        0.0013
     22 C          59.9467   88.8881    8.4274 C.ar    1  UNL1        0.0001
     23 C          59.5702   87.4791    8.0766 C.ar    1  UNL1        0.0013
     24 C          60.2893   86.3290    8.7171 C.ar    1  UNL1        0.0147
@<TRIPOS>BOND
     1    15    16    2
     2    16    14    1
     3    14     1    1
     4     1     2    1
     5     2     3    2
     6     3     8    1
     7     8     9    1
     8     9    10    1
     9    10    11    1
    10    11    12    1
    11    12    13    1
    12     3     4    1
    13     4     5    1
    14     5     6    2
    15     5     7    1
    16    16    17   am
    17    17    19    1
    18    19    20   ar
    19    20    21   ar
    20    21    22   ar
    21    22    23   ar
    22    23    24   ar
    23     7     1    2
    24    24    19   ar
    25    13     8    1
    26    17    18    1
@<TRIPOS>MOLECULE
*****
 24 26 0 0 0
SMALL
GASTEIGER

@<TRIPOS>ATOM
      1 C          64.3713   91.2019   12.9893 C.2     1  UNL1        0.3580
      2 N          64.7768   92.1930   11.9389 N.2     1  UNL1       -0.0039
      3 C          66.1172   92.8618   12.0164 C.2     1  UNL1        0.3159
      4 C          67.0522   92.5394   13.1441 C.3     1  UNL1        0.2333
      5 C          66.6468   91.5482   14.1945 C.2     1  UNL1        0.3644
      6 O          67.5818   91.2258   15.3222 O.2     1  UNL1       -0.2422
      7 N          65.3063   90.8795   14.1170 N.am    1  UNL1        0.0289
      8 N          66.5226   93.8530   10.9660 N.pl3   1  UNL1       -0.1888
      9 C          67.2212   93.3856    9.7236 C.3     1  UNL1        0.2343
     10 C          67.6267   94.3768    8.6733 C.3     1  UNL1        0.1929
     11 O          67.3336   95.8353    8.8653 O.3     1  UNL1       -0.3449
     12 C          66.6350   96.3027   10.1078 C.3     1  UNL1        0.1929
     13 C          66.2295   95.3114   11.1581 C.3     1  UNL1        0.2343
     14 C          63.0309   90.5331   12.9119 C.3     1  UNL1        0.2066
     15 O          63.0714   90.2617   10.3284 O.2     1  UNL1       -0.2741
     16 C          62.6430   89.7710   11.6795 C.2     1  UNL1        0.2387
     17 N          61.8267   88.5181   11.7984 N.am    1  UNL1       -0.2834
     18 H          61.5455   88.1961   12.6852 H       1  UNL1        0.1549
     19 C          61.4388   87.7560   10.5660 C.ar    1  UNL1        0.0503
     20 C          60.1032   87.9944    9.9261 C.ar    1  UNL1        0.0147
     21 C          59.7153   87.2323    8.6938 C.ar    1  UNL1        0.0013
     22 C          60.6630   86.2318    8.1013 C.ar    1  UNL1        0.0001
     23 C          61.9986   85.9935    8.7412 C.ar    1  UNL1        0.0013
     24 C          62.3864   86.7556    9.9736 C.ar    1  UNL1        0.0147
@<TRIPOS>BOND
     1    15    16    2
     2    16    14    1
     3    14     1    1
     4     1     2    1
     5     2     3    2
     6     3     8    1
     7     8     9    1
     8     9    10    1
     9    10    11    1
    10    11    12    1
    11    12    13    1
    12     3     4    1
    13     4     5    1
    14     5     6    2
    15     5     7    1
    16    16    17   am
    17    17    19    1
    18    19    20   ar
    19    20    21   ar
    20    21    22   ar
    21    22    23   ar
    22    23    24   ar
    23     7     1    2
    24    24    19   ar
    25    13     8    1
    26    17    18    1
@<TRIPOS>MOLECULE
*****
 24 26 0 0 0
SMALL
GASTEIGER

@<TRIPOS>ATOM
      1 C          63.1583   89.3876   12.2981 C.2     1  UNL1        0.3580
      2 N          62.2739   89.2088   11.0999 N.2     1  UNL1       -0.0039
      3 C          61.8303   87.8348   10.6935 C.2     1  UNL1        0.3159
      4 C          62.2712   86.6395   11.4853 C.3     1  UNL1        0.2333
      5 C          63.1557   86.8183   12.6835 C.2     1  UNL1        0.3644
      6 O          63.5966   85.6230   13.4753 O.2     1  UNL1       -0.2422
      7 N          63.5992   88.1923   13.0899 N.am    1  UNL1        0.0289
      8 N          60.9458   87.6559    9.4953 N.pl3   1  UNL1       -0.1888
      9 C          60.3055   88.8496    8.8509 C.3     1  UNL1        0.2343
     10 C          59.4210   88.6708    7.6527 C.3     1  UNL1        0.1929
     11 O          59.1769   87.2983    7.0988 O.3     1  UNL1       -0.3449
     12 C          59.8172   86.1047    7.7431 C.3     1  UNL1        0.1929
     13 C          60.7017   86.2835    8.9414 C.3     1  UNL1        0.2343
     14 C          63.6019   90.7617   12.7046 C.3     1  UNL1        0.2066
     15 O          63.7842   91.8566   10.3556 O.2     1  UNL1       -0.2741
     16 C          64.3407   91.6302   11.7300 C.2     1  UNL1        0.2387
     17 N          65.6360   92.2724   12.1298 N.am    1  UNL1       -0.2834
     18 H          66.0013   92.1239   13.0319 H       1  UNL1        0.1549
     19 C          66.3747   93.1410   11.1553 C.ar    1  UNL1        0.0503
     20 C          67.3570   92.5295   10.2006 C.ar    1  UNL1        0.0147
     21 C          68.0957   93.3981    9.2260 C.ar    1  UNL1        0.0013
     22 C          67.8523   94.8781    9.2061 C.ar    1  UNL1        0.0001
     23 C          66.8701   95.4895   10.1608 C.ar    1  UNL1        0.0013
     24 C          66.1313   94.6209   11.1354 C.ar    1  UNL1        0.0147
@<TRIPOS>BOND
     1    15    16    2
     2    16    14    1
     3    14     1    1
     4     1     2    1
     5     2     3    2
     6     3     8    1
     7     8     9    1
     8     9    10    1
     9    10    11    1
    10    11    12    1
    11    12    13    1
    12     3     4    1
    13     4     5    1
    14     5     6    2
    15     5     7    1
    16    16    17   am
    17    17    19    1
    18    19    20   ar
    19    20    21   ar
    20    21    22   ar
    21    22    23   ar
    22    23    24   ar
    23     7     1    2
    24    24    19   ar
    25    13     8    1
    26    17    18    1
@<TRIPOS>MOLECULE
*****
 24 26 0 0 0
SMALL
GASTEIGER

@<TRIPOS>ATOM
      1 C          64.6294   91.4157   14.1561 C.2     1  UNL1        0.3580
      2 N          65.0963   91.8380   12.7946 N.2     1  UNL1       -0.0039
      3 C          66.2729   92.7581   12.6571 C.2     1  UNL1        0.3159
      4 C          66.9827   93.2559   13.8812 C.3     1  UNL1        0.2333
      5 C          66.5159   92.8337   15.2427 C.2     1  UNL1        0.3644
      6 O          67.2257   93.3315   16.4668 O.2     1  UNL1       -0.2422
      7 N          65.3392   91.9136   15.3801 N.am    1  UNL1        0.0289
      8 N          66.7398   93.1804   11.2956 N.pl3   1  UNL1       -0.1888
      9 C          66.2635   94.4756   10.7077 C.3     1  UNL1        0.2343
     10 C          66.7303   94.8979    9.3463 C.3     1  UNL1        0.1929
     11 O          67.6735   94.0250    8.5726 O.3     1  UNL1       -0.3449
     12 C          68.1497   92.7298    9.1604 C.3     1  UNL1        0.1929
     13 C          67.6829   92.3075   10.5220 C.3     1  UNL1        0.2343
     14 C          63.4528   90.4956   14.2936 C.3     1  UNL1        0.2066
     15 O          63.5199   88.2642   12.9646 O.2     1  UNL1       -0.2741
     16 C          63.0094   89.6654   13.1256 C.2     1  UNL1        0.2387
     17 N          62.0554   90.2364   12.1186 N.am    1  UNL1       -0.2834
     18 H          61.7203   91.1561   12.2243 H       1  UNL1        0.1549
     19 C          61.6120   89.4062   10.9507 C.ar    1  UNL1        0.0503
     20 C          62.3194   88.1226   10.6313 C.ar    1  UNL1        0.0147
     21 C          61.8760   87.2924    9.4634 C.ar    1  UNL1        0.0013
     22 C          60.7252   87.7458    8.6147 C.ar    1  UNL1        0.0001
     23 C          60.0178   89.0294    8.9341 C.ar    1  UNL1        0.0013
     24 C          60.4613   89.8596   10.1021 C.ar    1  UNL1        0.0147
@<TRIPOS>BOND
     1    15    16    2
     2    16    14    1
     3    14     1    1
     4     1     2    1
     5     2     3    2
     6     3     8    1
     7     8     9    1
     8     9    10    1
     9    10    11    1
    10    11    12    1
    11    12    13    1
    12     3     4    1
    13     4     5    1
    14     5     6    2
    15     5     7    1
    16    16    17   am
    17    17    19    1
    18    19    20   ar
    19    20    21   ar
    20    21    22   ar
    21    22    23   ar
    22    23    24   ar
    23     7     1    2
    24    24    19   ar
    25    13     8    1
    26    17    18    1
@<TRIPOS>MOLECULE
*****
 24 26 0 0 0
SMALL
GASTEIGER

@<TRIPOS>ATOM
      1 C          62.5808   89.2439   11.8316 C.2     1  UNL1        0.3580
      2 N          63.1106   87.9241   12.3084 N.2     1  UNL1       -0.0039
      3 C          62.5273   86.6470   11.7807 C.2     1  UNL1        0.3159
      4 C          61.4142   86.6896   10.7761 C.3     1  UNL1        0.2333
      5 C          60.8844   88.0094   10.2993 C.2     1  UNL1        0.3644
      6 O          59.7713   88.0520    9.2947 O.2     1  UNL1       -0.2422
      7 N          61.4677   89.2865   10.8270 N.am    1  UNL1        0.0289
      8 N          63.0570   85.3271   12.2575 N.pl3   1  UNL1       -0.1888
      9 C          62.9372   84.1119   11.3864 C.3     1  UNL1        0.2343
     10 C          63.4669   82.7921   11.8632 C.3     1  UNL1        0.1929
     11 O          64.1166   82.6874   13.2112 O.3     1  UNL1       -0.3449
     12 C          64.2364   83.9026   14.0823 C.3     1  UNL1        0.1929
     13 C          63.7066   85.2224   13.6055 C.3     1  UNL1        0.2343
     14 C          63.1641   90.5212   12.3593 C.3     1  UNL1        0.2066
     15 O          63.5250   91.6761   10.0602 O.2     1  UNL1       -0.2741
     16 C          63.9844   91.3986   11.4609 C.2     1  UNL1        0.2387
     17 N          65.2643   91.9985   11.9631 N.am    1  UNL1       -0.2834
     18 H          65.5658   91.8164   12.8825 H       1  UNL1        0.1549
     19 C          66.0846   92.8759   11.0647 C.ar    1  UNL1        0.0503
     20 C          67.2184   92.2906   10.2762 C.ar    1  UNL1        0.0147
     21 C          68.0388   93.1680    9.3778 C.ar    1  UNL1        0.0013
     22 C          67.7253   94.6308    9.2678 C.ar    1  UNL1        0.0001
     23 C          66.5914   95.2161   10.0564 C.ar    1  UNL1        0.0013
     24 C          65.7711   94.3386   10.9549 C.ar    1  UNL1        0.0147
@<TRIPOS>BOND
     1    15    16    2
     2    16    14    1
     3    14     1    1
     4     1     2    1
     5     2     3    2
     6     3     8    1
     7     8     9    1
     8     9    10    1
     9    10    11    1
    10    11    12    1
    11    12    13    1
    12     3     4    1
    13     4     5    1
    14     5     6    2
    15     5     7    1
    16    16    17   am
    17    17    19    1
    18    19    20   ar
    19    20    21   ar
    20    21    22   ar
    21    22    23   ar
    22    23    24   ar
    23     7     1    2
    24    24    19   ar
    25    13     8    1
    26    17    18    1
@<TRIPOS>MOLECULE
*****
 24 26 0 0 0
SMALL
GASTEIGER

@<TRIPOS>ATOM
      1 C          62.1311   87.9660   10.9919 C.2     1  UNL1        0.3580
      2 N          62.4995   86.9920   12.0715 N.2     1  UNL1       -0.0039
      3 C          62.7036   85.5440   11.7374 C.2     1  UNL1        0.3159
      4 C          62.5394   85.0701   10.3238 C.3     1  UNL1        0.2333
      5 C          62.1710   86.0441    9.2442 C.2     1  UNL1        0.3644
      6 O          62.0067   85.5701    7.8306 O.2     1  UNL1       -0.2422
      7 N          61.9668   87.4920    9.5783 N.am    1  UNL1        0.0289
      8 N          63.0720   84.5699   12.8170 N.pl3   1  UNL1       -0.1888
      9 C          63.6912   85.0618   14.0916 C.3     1  UNL1        0.2343
     10 C          64.0596   84.0878   15.1712 C.3     1  UNL1        0.1929
     11 O          63.8089   82.6218   14.9762 O.3     1  UNL1       -0.3449
     12 C          63.1897   82.1299   13.7016 C.3     1  UNL1        0.1929
     13 C          62.8213   83.1040   12.6220 C.3     1  UNL1        0.2343
     14 C          61.9270   89.4141   11.3259 C.3     1  UNL1        0.2066
     15 O          62.6715   89.9096   13.7652 O.2     1  UNL1       -0.2741
     16 C          62.8513   90.0993   12.2882 C.2     1  UNL1        0.2387
     17 N          63.9556   90.9744   11.7733 N.am    1  UNL1       -0.2834
     18 H          64.0736   91.0989   10.8039 H       1  UNL1        0.1549
     19 C          64.8799   91.6597   12.7355 C.ar    1  UNL1        0.0503
     20 C          65.5414   92.9498   12.3505 C.ar    1  UNL1        0.0147
     21 C          66.4657   93.6350   13.3128 C.ar    1  UNL1        0.0013
     22 C          66.7287   93.0302   14.6601 C.ar    1  UNL1        0.0001
     23 C          66.0673   91.7402   15.0451 C.ar    1  UNL1        0.0013
     24 C          65.1429   91.0549   14.0828 C.ar    1  UNL1        0.0147
@<TRIPOS>BOND
     1    15    16    2
     2    16    14    1
     3    14     1    1
     4     1     2    1
     5     2     3    2
     6     3     8    1
     7     8     9    1
     8     9    10    1
     9    10    11    1
    10    11    12    1
    11    12    13    1
    12     3     4    1
    13     4     5    1
    14     5     6    2
    15     5     7    1
    16    16    17   am
    17    17    19    1
    18    19    20   ar
    19    20    21   ar
    20    21    22   ar
    21    22    23   ar
    22    23    24   ar
    23     7     1    2
    24    24    19   ar
    25    13     8    1
    26    17    18    1
@<TRIPOS>MOLECULE
*****
 24 26 0 0 0
SMALL
GASTEIGER

@<TRIPOS>ATOM
      1 C          63.2524   84.6927   14.9497 C.2     1  UNL1        0.3580
      2 N          63.0403   85.1759   13.5456 N.2     1  UNL1       -0.0039
      3 C          62.7771   84.1911   12.4453 C.2     1  UNL1        0.3159
      4 C          62.7259   82.7231   12.7491 C.3     1  UNL1        0.2333
      5 C          62.9380   82.2399   14.1531 C.2     1  UNL1        0.3644
      6 O          62.8869   80.7718   14.4569 O.2     1  UNL1       -0.2422
      7 N          63.2012   83.2247   15.2535 N.am    1  UNL1        0.0289
      8 N          62.5650   84.6743   11.0411 N.pl3   1  UNL1       -0.1888
      9 C          61.5157   85.7069   10.7538 C.3     1  UNL1        0.2343
     10 C          61.3035   86.1901    9.3497 C.3     1  UNL1        0.1929
     11 O          62.1408   85.6407    8.2329 O.3     1  UNL1       -0.3449
     12 C          63.1902   84.6081    8.5202 C.3     1  UNL1        0.1929
     13 C          63.4022   84.1249    9.9244 C.3     1  UNL1        0.2343
     14 C          63.5157   85.6776   16.0501 C.3     1  UNL1        0.2066
     15 O          63.1685   88.1628   16.7232 O.2     1  UNL1       -0.2741
     16 C          63.6418   87.1386   15.7348 C.2     1  UNL1        0.2387
     17 N          64.2411   87.5755   14.4309 N.am    1  UNL1       -0.2834
     18 H          64.5517   86.9032   13.7821 H       1  UNL1        0.1549
     19 C          64.3672   89.0365   14.1155 C.ar    1  UNL1        0.0503
     20 C          63.5544   89.6374   13.0073 C.ar    1  UNL1        0.0147
     21 C          63.6805   91.0984   12.6920 C.ar    1  UNL1        0.0013
     22 C          64.6195   91.9586   13.4848 C.ar    1  UNL1        0.0001
     23 C          65.4323   91.3576   14.5930 C.ar    1  UNL1        0.0013
     24 C          65.3062   89.8965   14.9084 C.ar    1  UNL1        0.0147
@<TRIPOS>BOND
     1    15    16    2
     2    16    14    1
     3    14     1    1
     4     1     2    1
     5     2     3    2
     6     3     8    1
     7     8     9    1
     8     9    10    1
     9    10    11    1
    10    11    12    1
    11    12    13    1
    12     3     4    1
    13     4     5    1
    14     5     6    2
    15     5     7    1
    16    16    17   am
    17    17    19    1
    18    19    20   ar
    19    20    21   ar
    20    21    22   ar
    21    22    23   ar
    22    23    24   ar
    23     7     1    2
    24    24    19   ar
    25    13     8    1
    26    17    18    1
