@<TRIPOS>MOLECULE
*****
 35 38 0 0 0
SMALL
GASTEIGER

@<TRIPOS>ATOM
      1 C          62.3667   89.2929   11.7761 C.2     1  UNL1        0.2495
      2 O          60.9591   89.3990   12.2837 O.2     1  UNL1       -0.2698
      3 N          62.6387   88.6512   10.4479 N.am    1  UNL1       -0.2791
      4 H          63.5625   88.5816   10.1148 H       1  UNL1        0.1552
      5 C          65.7733   90.9001   14.2383 C.ar    1  UNL1        0.0366
      6 C          64.9901   89.7164   14.7237 C.ar    1  UNL1        0.0009
      7 C          63.8546   89.1807   13.9030 C.ar    1  UNL1        0.0044
      8 C          63.5022   89.8286   12.5969 C.ar    1  UNL1        0.0537
      9 C          64.2854   91.0123   12.1114 C.ar    1  UNL1        0.0042
     10 C          63.9330   91.6602   10.8053 C.ar    1  UNL1        0.0001
     11 C          64.7162   92.8438   10.3198 C.ar    1  UNL1        0.0000
     12 C          65.8517   93.3795   11.1405 C.ar    1  UNL1       -0.0000
     13 C          66.2041   92.7316   12.4467 C.ar    1  UNL1       -0.0002
     14 C          65.4209   91.5480   12.9321 C.ar    1  UNL1        0.0010
     15 C          66.9088   91.4358   15.0590 C.3     1  UNL1        0.2826
     16 C          67.7172   93.8031   15.7604 C.3     1  UNL1        0.3201
     17 S          66.7245   92.6840   15.8700 S.O     1  UNL1        0.0405
     18 O          65.5474   92.8131   16.7909 O.co2   1  UNL1       -0.6809
     19 C          61.5031   88.1155    9.6272 C.ar    1  UNL1        0.0730
     20 C          60.5360   89.0604    8.9778 C.ar    1  UNL1        0.0180
     21 C          59.4004   88.5247    8.1571 C.ar    1  UNL1        0.0220
     22 C          59.2320   87.0441    7.9858 C.ar    1  UNL1        0.0991
     23 N          60.1992   86.0991    8.6352 N.ar    1  UNL1       -0.2380
     24 C          61.3347   86.6348    9.4559 C.ar    1  UNL1        0.1478
     25 C          62.3019   85.6899   10.1053 C.2     1  UNL1        0.2648
     26 O          63.2282   84.8666    9.2602 O.2     1  UNL1       -0.2684
     27 N          62.3428   85.5683   11.5998 N.am    1  UNL1       -0.2996
     28 H          61.7348   86.1087   12.1544 H       1  UNL1        0.1498
     29 C          63.3100   84.6234   12.2492 C.3     1  UNL1        0.0899
     30 C          62.8838   83.2237   12.5797 C.3     1  UNL1        0.0246
     31 C          62.2397   82.9282   13.9017 C.3     1  UNL1        0.0338
     32 C          61.8135   81.5286   14.2322 C.3     1  UNL1        0.1422
     33 O          62.0314   80.4243   13.2406 O.3     1  UNL1       -0.3538
     34 C          62.6755   80.7198   11.9185 C.3     1  UNL1        0.1422
     35 C          63.1017   82.1196   11.5881 C.3     1  UNL1        0.0338
@<TRIPOS>UNITY_ATOM_ATTR
17 1
charge 1
18 1
charge -1
@<TRIPOS>BOND
     1    16    17    1
     2    17    18    2
     3    17    15    1
     4    15     5    1
     5     5     6   ar
     6     6     7   ar
     7     7     8   ar
     8     8     1    1
     9     1     2    2
    10     1     3   am
    11     3    19    1
    12    19    20   ar
    13    20    21   ar
    14    21    22   ar
    15    22    23   ar
    16    23    24   ar
    17    24    25    1
    18    25    26    2
    19    25    27   am
    20    27    29    1
    21    29    30    1
    22    30    31    1
    23    31    32    1
    24    32    33    1
    25    33    34    1
    26    34    35    1
    27     8     9   ar
    28     9    10   ar
    29    10    11   ar
    30    11    12   ar
    31    12    13   ar
    32    13    14   ar
    33    14     5   ar
    34    24    19   ar
    35    35    30    1
    36    14     9   ar
    37     3     4    1
    38    27    28    1
@<TRIPOS>MOLECULE
*****
 35 38 0 0 0
SMALL
GASTEIGER

@<TRIPOS>ATOM
      1 C          62.2614   90.2736   10.8644 C.2     1  UNL1        0.2495
      2 O          60.8561   90.7843   10.9843 O.2     1  UNL1       -0.2698
      3 N          62.5423   89.0285   10.0766 N.am    1  UNL1       -0.2791
      4 H          63.4646   88.6933    9.9979 H       1  UNL1        0.1552
      5 C          65.6347   92.4771   12.8684 C.ar    1  UNL1        0.0366
      6 C          65.3888   92.6575   11.3998 C.ar    1  UNL1        0.0009
      7 C          64.2644   91.9230   10.7318 C.ar    1  UNL1        0.0044
      8 C          63.3859   91.0081   11.5324 C.ar    1  UNL1        0.0537
      9 C          63.6317   90.8276   13.0011 C.ar    1  UNL1        0.0042
     10 C          62.7532   89.9127   13.8018 C.ar    1  UNL1        0.0001
     11 C          62.9991   89.7322   15.2704 C.ar    1  UNL1        0.0000
     12 C          64.1236   90.4667   15.9384 C.ar    1  UNL1       -0.0000
     13 C          65.0021   91.3817   15.1377 C.ar    1  UNL1       -0.0002
     14 C          64.7562   91.5621   13.6691 C.ar    1  UNL1        0.0010
     15 C          66.7591   93.2116   13.5364 C.3     1  UNL1        0.2826
     16 C          68.5961   92.5575   15.2532 C.3     1  UNL1        0.3201
     17 S          68.0344   92.4931   13.8639 S.O     1  UNL1        0.0405
     18 O          68.7481   91.7101   12.8019 O.co2   1  UNL1       -0.6809
     19 C          61.4179   88.2940    9.4086 C.ar    1  UNL1        0.0730
     20 C          60.4786   89.0281    8.4982 C.ar    1  UNL1        0.0180
     21 C          59.3542   88.2936    7.8302 C.ar    1  UNL1        0.0220
     22 C          59.1690   86.8250    8.0726 C.ar    1  UNL1        0.0991
     23 N          60.1083   86.0908    8.9830 N.ar    1  UNL1       -0.2380
     24 C          61.2327   86.8253    9.6510 C.ar    1  UNL1        0.1478
     25 C          62.1720   86.0911   10.5613 C.2     1  UNL1        0.2648
     26 O          62.6462   86.7375   11.8291 O.2     1  UNL1       -0.2684
     27 N          62.6370   84.7106   10.2039 N.am    1  UNL1       -0.2996
     28 H          62.3258   84.2864    9.3718 H       1  UNL1        0.1498
     29 C          63.5763   83.9764   11.1143 C.3     1  UNL1        0.0899
     30 C          63.0391   83.2109   12.2870 C.3     1  UNL1        0.0246
     31 C          62.5959   81.7883   12.1147 C.3     1  UNL1        0.0338
     32 C          62.0586   81.0229   13.2875 C.3     1  UNL1        0.1422
     33 O          61.9646   81.6800   14.6326 O.3     1  UNL1       -0.3538
     34 C          62.4078   83.1026   14.8049 C.3     1  UNL1        0.1422
     35 C          62.9451   83.8681   13.6321 C.3     1  UNL1        0.0338
@<TRIPOS>UNITY_ATOM_ATTR
17 1
charge 1
18 1
charge -1
@<TRIPOS>BOND
     1    16    17    1
     2    17    18    2
     3    17    15    1
     4    15     5    1
     5     5     6   ar
     6     6     7   ar
     7     7     8   ar
     8     8     1    1
     9     1     2    2
    10     1     3   am
    11     3    19    1
    12    19    20   ar
    13    20    21   ar
    14    21    22   ar
    15    22    23   ar
    16    23    24   ar
    17    24    25    1
    18    25    26    2
    19    25    27   am
    20    27    29    1
    21    29    30    1
    22    30    31    1
    23    31    32    1
    24    32    33    1
    25    33    34    1
    26    34    35    1
    27     8     9   ar
    28     9    10   ar
    29    10    11   ar
    30    11    12   ar
    31    12    13   ar
    32    13    14   ar
    33    14     5   ar
    34    24    19   ar
    35    35    30    1
    36    14     9   ar
    37     3     4    1
    38    27    28    1
@<TRIPOS>MOLECULE
*****
 35 38 0 0 0
SMALL
GASTEIGER

@<TRIPOS>ATOM
      1 C          63.5514   89.4527   13.9283 C.2     1  UNL1        0.2495
      2 O          62.3799   89.7225   14.8255 O.2     1  UNL1       -0.2698
      3 N          64.1771   88.0898   13.9013 N.am    1  UNL1       -0.2791
      4 H          64.9460   87.9128   13.3124 H       1  UNL1        0.1552
      5 C          65.1884   92.7325   11.3181 C.ar    1  UNL1        0.0366
      6 C          64.2225   91.7346   10.7514 C.ar    1  UNL1        0.0009
      7 C          63.6768   90.6414   11.6215 C.ar    1  UNL1        0.0044
      8 C          64.0971   90.5460   13.0583 C.ar    1  UNL1        0.0537
      9 C          65.0631   91.5439   13.6250 C.ar    1  UNL1        0.0042
     10 C          65.4833   91.4485   15.0617 C.ar    1  UNL1        0.0001
     11 C          66.4493   92.4464   15.6283 C.ar    1  UNL1        0.0000
     12 C          66.9950   93.5397   14.7582 C.ar    1  UNL1       -0.0000
     13 C          66.5747   93.6350   13.3215 C.ar    1  UNL1       -0.0002
     14 C          65.6087   92.6371   12.7549 C.ar    1  UNL1        0.0010
     15 C          65.7341   93.8257   10.4480 C.3     1  UNL1        0.2826
     16 C          67.4648   94.5666    8.6576 C.3     1  UNL1        0.3201
     17 S          67.0705   93.6616    9.7869 S.O     1  UNL1        0.0405
     18 O          68.0127   92.5924   10.2552 O.co2   1  UNL1       -0.6809
     19 C          63.6315   86.9966   14.7714 C.ar    1  UNL1        0.0730
     20 C          63.6126   87.1633   16.2619 C.ar    1  UNL1        0.0180
     21 C          63.0669   86.0700   17.1320 C.ar    1  UNL1        0.0220
     22 C          62.5401   84.8101   16.5115 C.ar    1  UNL1        0.0991
     23 N          62.5589   84.6434   15.0209 N.ar    1  UNL1       -0.2380
     24 C          63.1046   85.7366   14.1508 C.ar    1  UNL1        0.1478
     25 C          63.1235   85.5699   12.6603 C.2     1  UNL1        0.2648
     26 O          63.9332   84.4708   12.0387 O.2     1  UNL1       -0.2684
     27 N          62.3327   86.5023   11.7913 N.am    1  UNL1       -0.2996
     28 H          61.8012   87.2237   12.1993 H       1  UNL1        0.1498
     29 C          62.3515   86.3357   10.3006 C.3     1  UNL1        0.0899
     30 C          61.2999   86.9954    9.4589 C.3     1  UNL1        0.0246
     31 C          60.3984   86.1629    8.5961 C.3     1  UNL1        0.0338
     32 C          59.3467   86.8227    7.7543 C.3     1  UNL1        0.1422
     33 O          59.1965   88.3151    7.7753 O.3     1  UNL1       -0.3538
     34 C          60.0979   89.1476    8.6380 C.3     1  UNL1        0.1422
     35 C          61.1497   88.4877    9.4798 C.3     1  UNL1        0.0338
@<TRIPOS>UNITY_ATOM_ATTR
17 1
charge 1
18 1
charge -1
@<TRIPOS>BOND
     1    16    17    1
     2    17    18    2
     3    17    15    1
     4    15     5    1
     5     5     6   ar
     6     6     7   ar
     7     7     8   ar
     8     8     1    1
     9     1     2    2
    10     1     3   am
    11     3    19    1
    12    19    20   ar
    13    20    21   ar
    14    21    22   ar
    15    22    23   ar
    16    23    24   ar
    17    24    25    1
    18    25    26    2
    19    25    27   am
    20    27    29    1
    21    29    30    1
    22    30    31    1
    23    31    32    1
    24    32    33    1
    25    33    34    1
    26    34    35    1
    27     8     9   ar
    28     9    10   ar
    29    10    11   ar
    30    11    12   ar
    31    12    13   ar
    32    13    14   ar
    33    14     5   ar
    34    24    19   ar
    35    35    30    1
    36    14     9   ar
    37     3     4    1
    38    27    28    1
@<TRIPOS>MOLECULE
*****
 35 38 0 0 0
SMALL
GASTEIGER

@<TRIPOS>ATOM
      1 C          63.9559   89.8773   14.8645 C.2     1  UNL1        0.2495
      2 O          63.3371   90.4648   16.0982 O.2     1  UNL1       -0.2698
      3 N          64.0702   88.3888   14.7188 N.am    1  UNL1       -0.2791
      4 H          64.4763   88.0032   13.9091 H       1  UNL1        0.1552
      5 C          65.4690   92.5803   11.6004 C.ar    1  UNL1        0.0366
      6 C          66.1306   92.5869   12.9465 C.ar    1  UNL1        0.0009
      7 C          65.6263   91.6859   14.0346 C.ar    1  UNL1        0.0044
      8 C          64.4603   90.7783   13.7764 C.ar    1  UNL1        0.0537
      9 C          63.7986   90.7717   12.4302 C.ar    1  UNL1        0.0042
     10 C          62.6326   89.8641   12.1721 C.ar    1  UNL1        0.0001
     11 C          61.9709   89.8575   10.8260 C.ar    1  UNL1        0.0000
     12 C          62.4753   90.7585    9.7379 C.ar    1  UNL1       -0.0000
     13 C          63.6413   91.6661    9.9961 C.ar    1  UNL1       -0.0002
     14 C          64.3029   91.6727   11.3422 C.ar    1  UNL1        0.0010
     15 C          65.9734   93.4813   10.5124 C.3     1  UNL1        0.2826
     16 C          67.8702   94.2085    8.8927 C.3     1  UNL1        0.3201
     17 S          67.3505   93.2824    9.9520 S.O     1  UNL1        0.0405
     18 O          68.2080   92.1573   10.4510 O.co2   1  UNL1       -0.6809
     19 C          63.5659   87.4878   15.8068 C.ar    1  UNL1        0.0730
     20 C          63.1626   88.0645   17.1315 C.ar    1  UNL1        0.0180
     21 C          62.6582   87.1635   18.2195 C.ar    1  UNL1        0.0220
     22 C          62.5571   85.6858   17.9829 C.ar    1  UNL1        0.0991
     23 N          62.9604   85.1090   16.6582 N.ar    1  UNL1       -0.2380
     24 C          63.4648   86.0100   15.5702 C.ar    1  UNL1        0.1478
     25 C          63.8681   85.4332   14.2456 C.2     1  UNL1        0.2648
     26 O          65.2439   84.8642   14.0629 O.2     1  UNL1       -0.2684
     27 N          62.8956   85.4255   13.1036 N.am    1  UNL1       -0.2996
     28 H          61.9926   85.7990   13.2235 H       1  UNL1        0.1498
     29 C          63.2989   84.8488   11.7789 C.3     1  UNL1        0.0899
     30 C          62.5899   85.2758   10.5279 C.3     1  UNL1        0.0246
     31 C          61.3385   86.0979   10.6184 C.3     1  UNL1        0.0338
     32 C          60.6296   86.5248    9.3674 C.3     1  UNL1        0.1422
     33 O          61.1720   86.1298    8.0258 O.3     1  UNL1       -0.3538
     34 C          62.4234   85.3077    7.9353 C.3     1  UNL1        0.1422
     35 C          63.1324   84.8807    9.1864 C.3     1  UNL1        0.0338
@<TRIPOS>UNITY_ATOM_ATTR
17 1
charge 1
18 1
charge -1
@<TRIPOS>BOND
     1    16    17    1
     2    17    18    2
     3    17    15    1
     4    15     5    1
     5     5     6   ar
     6     6     7   ar
     7     7     8   ar
     8     8     1    1
     9     1     2    2
    10     1     3   am
    11     3    19    1
    12    19    20   ar
    13    20    21   ar
    14    21    22   ar
    15    22    23   ar
    16    23    24   ar
    17    24    25    1
    18    25    26    2
    19    25    27   am
    20    27    29    1
    21    29    30    1
    22    30    31    1
    23    31    32    1
    24    32    33    1
    25    33    34    1
    26    34    35    1
    27     8     9   ar
    28     9    10   ar
    29    10    11   ar
    30    11    12   ar
    31    12    13   ar
    32    13    14   ar
    33    14     5   ar
    34    24    19   ar
    35    35    30    1
    36    14     9   ar
    37     3     4    1
    38    27    28    1
@<TRIPOS>MOLECULE
*****
 35 38 0 0 0
SMALL
GASTEIGER

@<TRIPOS>ATOM
      1 C          64.0771   90.0791   14.9131 C.2     1  UNL1        0.2495
      2 O          63.6164   90.6987   16.1992 O.2     1  UNL1       -0.2698
      3 N          64.0519   88.5885   14.7475 N.am    1  UNL1       -0.2791
      4 H          64.3543   88.1818   13.9034 H       1  UNL1        0.1552
      5 C          65.5345   92.6922   11.5520 C.ar    1  UNL1        0.0366
      6 C          66.2086   92.7468   12.8909 C.ar    1  UNL1        0.0009
      7 C          65.7228   91.8758   14.0112 C.ar    1  UNL1        0.0044
      8 C          64.5629   90.9501   13.7927 C.ar    1  UNL1        0.0537
      9 C          63.8887   90.8955   12.4538 C.ar    1  UNL1        0.0042
     10 C          62.7288   89.9698   12.2353 C.ar    1  UNL1        0.0001
     11 C          62.0548   89.9153   10.8965 C.ar    1  UNL1        0.0000
     12 C          62.5406   90.7863    9.7761 C.ar    1  UNL1       -0.0000
     13 C          63.7005   91.7119    9.9946 C.ar    1  UNL1       -0.0002
     14 C          64.3745   91.7665   11.3335 C.ar    1  UNL1        0.0010
     15 C          66.0203   93.5633   10.4316 C.3     1  UNL1        0.2826
     16 C          68.0164   92.0647    9.7107 C.3     1  UNL1        0.3201
     17 S          67.4279   93.4266    9.9316 S.O     1  UNL1        0.0405
     18 O          68.2470   94.6519    9.6524 O.co2   1  UNL1       -0.6809
     19 C          63.5661   87.7174   15.8679 C.ar    1  UNL1        0.0730
     20 C          63.1838   88.3301   17.1825 C.ar    1  UNL1        0.0180
     21 C          62.6980   87.4590   18.3029 C.ar    1  UNL1        0.0220
     22 C          62.5944   85.9753   18.1086 C.ar    1  UNL1        0.0991
     23 N          62.9767   85.3626   16.7939 N.ar    1  UNL1       -0.2380
     24 C          63.4625   86.2336   15.6735 C.ar    1  UNL1        0.1478
     25 C          63.8448   85.6210   14.3588 C.2     1  UNL1        0.2648
     26 O          63.4791   86.3080   13.0766 O.2     1  UNL1       -0.2684
     27 N          64.5928   84.3212   14.3264 N.am    1  UNL1       -0.2996
     28 H          64.8328   83.8703   15.1680 H       1  UNL1        0.1498
     29 C          64.9751   83.7085   13.0116 C.3     1  UNL1        0.0899
     30 C          64.1980   82.5443   12.4725 C.3     1  UNL1        0.0246
     31 C          64.0933   82.3339   10.9910 C.3     1  UNL1        0.0338
     32 C          63.3162   81.1697   10.4519 C.3     1  UNL1        0.1422
     33 O          62.6437   80.2159   11.3943 O.3     1  UNL1       -0.3538
     34 C          62.7483   80.4263   12.8757 C.3     1  UNL1        0.1422
     35 C          63.5255   81.5905   13.4148 C.3     1  UNL1        0.0338
@<TRIPOS>UNITY_ATOM_ATTR
17 1
charge 1
18 1
charge -1
@<TRIPOS>BOND
     1    16    17    1
     2    17    18    2
     3    17    15    1
     4    15     5    1
     5     5     6   ar
     6     6     7   ar
     7     7     8   ar
     8     8     1    1
     9     1     2    2
    10     1     3   am
    11     3    19    1
    12    19    20   ar
    13    20    21   ar
    14    21    22   ar
    15    22    23   ar
    16    23    24   ar
    17    24    25    1
    18    25    26    2
    19    25    27   am
    20    27    29    1
    21    29    30    1
    22    30    31    1
    23    31    32    1
    24    32    33    1
    25    33    34    1
    26    34    35    1
    27     8     9   ar
    28     9    10   ar
    29    10    11   ar
    30    11    12   ar
    31    12    13   ar
    32    13    14   ar
    33    14     5   ar
    34    24    19   ar
    35    35    30    1
    36    14     9   ar
    37     3     4    1
    38    27    28    1
@<TRIPOS>MOLECULE
*****
 35 38 0 0 0
SMALL
GASTEIGER

@<TRIPOS>ATOM
      1 C          63.7674   89.5044   14.7101 C.2     1  UNL1        0.2495
      2 O          62.7176   89.9152   15.6997 O.2     1  UNL1       -0.2698
      3 N          64.2095   88.0729   14.6365 N.am    1  UNL1       -0.2791
      4 H          64.8985   87.8033   13.9870 H       1  UNL1        0.1552
      5 C          65.5905   92.5664   11.9623 C.ar    1  UNL1        0.0366
      6 C          66.1421   92.3757   13.3441 C.ar    1  UNL1        0.0009
      7 C          65.5344   91.3550   14.2600 C.ar    1  UNL1        0.0044
      8 C          64.3751   90.5250   13.7942 C.ar    1  UNL1        0.0537
      9 C          63.8235   90.7157   12.4123 C.ar    1  UNL1        0.0042
     10 C          62.6642   89.8857   11.9465 C.ar    1  UNL1        0.0001
     11 C          62.1125   90.0764   10.5647 C.ar    1  UNL1        0.0000
     12 C          62.7202   91.0971    9.6488 C.ar    1  UNL1       -0.0000
     13 C          63.8796   91.9270   10.1146 C.ar    1  UNL1       -0.0002
     14 C          64.4312   91.7364   11.4964 C.ar    1  UNL1        0.0010
     15 C          66.1982   93.5871   11.0464 C.3     1  UNL1        0.2826
     16 C          67.9924   91.8642   10.2964 C.3     1  UNL1        0.3201
     17 S          67.4521   93.2635   10.2895 S.O     1  UNL1        0.0405
     18 O          68.1658   94.3392    9.5255 O.co2   1  UNL1       -0.6809
     19 C          63.6018   87.0522   15.5524 C.ar    1  UNL1        0.0730
     20 C          63.2911   87.4117   16.9751 C.ar    1  UNL1        0.0180
     21 C          62.6834   86.3910   17.8910 C.ar    1  UNL1        0.0220
     22 C          62.3864   85.0109   17.3843 C.ar    1  UNL1        0.0991
     23 N          62.6972   84.6513   15.9615 N.ar    1  UNL1       -0.2380
     24 C          63.3049   85.6720   15.0456 C.ar    1  UNL1        0.1478
     25 C          63.6156   85.3125   13.6229 C.2     1  UNL1        0.2648
     26 O          64.7559   84.3879   13.3148 O.2     1  UNL1       -0.2684
     27 N          62.7861   85.8776   12.5082 N.am    1  UNL1       -0.2996
     28 H          62.0377   86.4845   12.7104 H       1  UNL1        0.1498
     29 C          63.0969   85.5181   11.0854 C.3     1  UNL1        0.0899
     30 C          62.1231   85.8577    9.9962 C.3     1  UNL1        0.0246
     31 C          62.3695   85.3826    8.5949 C.3     1  UNL1        0.0338
     32 C          61.3957   85.7222    7.5057 C.3     1  UNL1        0.1422
     33 O          60.1755   86.5369    7.8178 O.3     1  UNL1       -0.3538
     34 C          59.9291   87.0120    9.2191 C.3     1  UNL1        0.1422
     35 C          60.9029   86.6724   10.3083 C.3     1  UNL1        0.0338
@<TRIPOS>UNITY_ATOM_ATTR
17 1
charge 1
18 1
charge -1
@<TRIPOS>BOND
     1    16    17    1
     2    17    18    2
     3    17    15    1
     4    15     5    1
     5     5     6   ar
     6     6     7   ar
     7     7     8   ar
     8     8     1    1
     9     1     2    2
    10     1     3   am
    11     3    19    1
    12    19    20   ar
    13    20    21   ar
    14    21    22   ar
    15    22    23   ar
    16    23    24   ar
    17    24    25    1
    18    25    26    2
    19    25    27   am
    20    27    29    1
    21    29    30    1
    22    30    31    1
    23    31    32    1
    24    32    33    1
    25    33    34    1
    26    34    35    1
    27     8     9   ar
    28     9    10   ar
    29    10    11   ar
    30    11    12   ar
    31    12    13   ar
    32    13    14   ar
    33    14     5   ar
    34    24    19   ar
    35    35    30    1
    36    14     9   ar
    37     3     4    1
    38    27    28    1
@<TRIPOS>MOLECULE
*****
 35 38 0 0 0
SMALL
GASTEIGER

@<TRIPOS>ATOM
      1 C          63.8310   84.8987   13.9510 C.2     1  UNL1        0.2495
      2 O          65.1209   84.1336   13.9831 O.2     1  UNL1       -0.2698
      3 N          62.5564   84.2043   13.5727 N.am    1  UNL1       -0.2791
      4 H          61.7098   84.7064   13.5516 H       1  UNL1        0.1552
      5 C          63.7855   89.2769   14.9895 C.ar    1  UNL1        0.0366
      6 C          64.1332   88.8399   13.5973 C.ar    1  UNL1        0.0009
      7 C          64.1484   87.3805   13.2512 C.ar    1  UNL1        0.0044
      8 C          63.8158   86.3581   14.2971 C.ar    1  UNL1        0.0537
      9 C          63.4681   86.7951   15.6893 C.ar    1  UNL1        0.0042
     10 C          63.1355   85.7727   16.7353 C.ar    1  UNL1        0.0001
     11 C          62.7878   86.2097   18.1274 C.ar    1  UNL1        0.0000
     12 C          62.7726   87.6692   18.4736 C.ar    1  UNL1       -0.0000
     13 C          63.1052   88.6916   17.4276 C.ar    1  UNL1       -0.0002
     14 C          63.4529   88.2545   16.0355 C.ar    1  UNL1        0.0010
     15 C          63.7703   90.7364   15.3356 C.3     1  UNL1        0.2826
     16 C          65.9320   92.1609   15.5544 C.3     1  UNL1        0.3201
     17 S          64.7832   91.6616   14.7291 S.O     1  UNL1        0.0405
     18 O          64.6474   92.0877   13.2973 O.co2   1  UNL1       -0.6809
     19 C          62.5715   82.7449   13.2265 C.ar    1  UNL1        0.0730
     20 C          62.2146   81.7238   14.2657 C.ar    1  UNL1        0.0180
     21 C          62.2298   80.2644   13.9196 C.ar    1  UNL1        0.0220
     22 C          62.6019   79.8260   12.5342 C.ar    1  UNL1        0.0991
     23 N          62.9588   80.8471   11.4949 N.ar    1  UNL1       -0.2380
     24 C          62.9436   82.3065   11.8410 C.ar    1  UNL1        0.1478
     25 C          63.3006   83.3275   10.8018 C.2     1  UNL1        0.2648
     26 O          64.5751   83.1909   10.0228 O.2     1  UNL1       -0.2684
     27 N          62.3829   84.4852   10.5416 N.am    1  UNL1       -0.2996
     28 H          61.5464   84.5749   11.0530 H       1  UNL1        0.1498
     29 C          62.7398   85.5063    9.5024 C.3     1  UNL1        0.0899
     30 C          61.7878   86.6225    9.1896 C.3     1  UNL1        0.0246
     31 C          62.0085   87.9839    9.7795 C.3     1  UNL1        0.0338
     32 C          61.0565   89.1001    9.4668 C.3     1  UNL1        0.1422
     33 O          59.8838   88.8549    8.5641 O.3     1  UNL1       -0.3538
     34 C          59.6632   87.4935    7.9742 C.3     1  UNL1        0.1422
     35 C          60.6152   86.3773    8.2870 C.3     1  UNL1        0.0338
@<TRIPOS>UNITY_ATOM_ATTR
17 1
charge 1
18 1
charge -1
@<TRIPOS>BOND
     1    16    17    1
     2    17    18    2
     3    17    15    1
     4    15     5    1
     5     5     6   ar
     6     6     7   ar
     7     7     8   ar
     8     8     1    1
     9     1     2    2
    10     1     3   am
    11     3    19    1
    12    19    20   ar
    13    20    21   ar
    14    21    22   ar
    15    22    23   ar
    16    23    24   ar
    17    24    25    1
    18    25    26    2
    19    25    27   am
    20    27    29    1
    21    29    30    1
    22    30    31    1
    23    31    32    1
    24    32    33    1
    25    33    34    1
    26    34    35    1
    27     8     9   ar
    28     9    10   ar
    29    10    11   ar
    30    11    12   ar
    31    12    13   ar
    32    13    14   ar
    33    14     5   ar
    34    24    19   ar
    35    35    30    1
    36    14     9   ar
    37     3     4    1
    38    27    28    1
@<TRIPOS>MOLECULE
*****
 35 38 0 0 0
SMALL
GASTEIGER

@<TRIPOS>ATOM
      1 C          62.2246   89.6802   11.4132 C.2     1  UNL1        0.2495
      2 O          60.8237   90.1702   11.6315 O.2     1  UNL1       -0.2698
      3 N          62.5183   88.7208   10.2982 N.am    1  UNL1       -0.2791
      4 H          63.4377   88.3992   10.1549 H       1  UNL1        0.1552
      5 C          65.5458   91.0883   14.1033 C.ar    1  UNL1        0.0366
      6 C          64.6967   89.9201   14.5085 C.ar    1  UNL1        0.0009
      7 C          63.5896   89.4507   13.6118 C.ar    1  UNL1        0.0044
      8 C          63.3316   90.1495   12.3099 C.ar    1  UNL1        0.0537
      9 C          64.1808   91.3178   11.9046 C.ar    1  UNL1        0.0042
     10 C          63.9228   92.0167   10.6027 C.ar    1  UNL1        0.0001
     11 C          64.7719   93.1849   10.1975 C.ar    1  UNL1        0.0000
     12 C          65.8790   93.6543   11.0942 C.ar    1  UNL1       -0.0000
     13 C          66.1369   92.9554   12.3961 C.ar    1  UNL1       -0.0002
     14 C          65.2878   91.7872   12.8013 C.ar    1  UNL1        0.0010
     15 C          66.6529   91.5577   15.0000 C.3     1  UNL1        0.2826
     16 C          68.6299   91.5165   13.3150 C.3     1  UNL1        0.3201
     17 S          67.8717   92.2042   14.4114 S.O     1  UNL1        0.0405
     18 O          68.3323   93.5383   14.9193 O.co2   1  UNL1       -0.6809
     19 C          61.4112   88.2514    9.4015 C.ar    1  UNL1        0.0730
     20 C          60.5341   89.2504    8.7069 C.ar    1  UNL1        0.0180
     21 C          59.4270   88.7810    7.8102 C.ar    1  UNL1        0.0220
     22 C          59.1971   87.3126    7.6081 C.ar    1  UNL1        0.0991
     23 N          60.0742   86.3135    8.3027 N.ar    1  UNL1       -0.2380
     24 C          61.1813   86.7829    9.1994 C.ar    1  UNL1        0.1478
     25 C          62.0584   85.7839    9.8940 C.2     1  UNL1        0.2648
     26 O          63.2170   85.1690    9.1663 O.2     1  UNL1       -0.2684
     27 N          61.7770   85.3997   11.3164 N.am    1  UNL1       -0.2996
     28 H          61.0166   85.8033   11.7940 H       1  UNL1        0.1498
     29 C          62.6542   84.4007   12.0111 C.3     1  UNL1        0.0899
     30 C          63.0854   84.6384   13.4279 C.3     1  UNL1        0.0246
     31 C          62.6545   83.6948   14.5114 C.3     1  UNL1        0.0338
     32 C          63.0858   83.9326   15.9283 C.3     1  UNL1        0.1422
     33 O          63.9480   85.1140   16.2616 O.3     1  UNL1       -0.3538
     34 C          64.3789   86.0576   15.1781 C.3     1  UNL1        0.1422
     35 C          63.9475   85.8197   13.7612 C.3     1  UNL1        0.0338
@<TRIPOS>UNITY_ATOM_ATTR
17 1
charge 1
18 1
charge -1
@<TRIPOS>BOND
     1    16    17    1
     2    17    18    2
     3    17    15    1
     4    15     5    1
     5     5     6   ar
     6     6     7   ar
     7     7     8   ar
     8     8     1    1
     9     1     2    2
    10     1     3   am
    11     3    19    1
    12    19    20   ar
    13    20    21   ar
    14    21    22   ar
    15    22    23   ar
    16    23    24   ar
    17    24    25    1
    18    25    26    2
    19    25    27   am
    20    27    29    1
    21    29    30    1
    22    30    31    1
    23    31    32    1
    24    32    33    1
    25    33    34    1
    26    34    35    1
    27     8     9   ar
    28     9    10   ar
    29    10    11   ar
    30    11    12   ar
    31    12    13   ar
    32    13    14   ar
    33    14     5   ar
    34    24    19   ar
    35    35    30    1
    36    14     9   ar
    37     3     4    1
    38    27    28    1
@<TRIPOS>MOLECULE
*****
 35 38 0 0 0
SMALL
GASTEIGER

@<TRIPOS>ATOM
      1 C          63.7687   89.8759   14.8459 C.2     1  UNL1        0.2495
      2 O          62.9203   90.4538   15.9397 O.2     1  UNL1       -0.2698
      3 N          64.0872   88.4102   14.8388 N.am    1  UNL1       -0.2791
      4 H          64.6441   88.0310   14.1209 H       1  UNL1        0.1552
      5 C          65.3584   92.5399   11.5861 C.ar    1  UNL1        0.0366
      6 C          64.2957   91.5278   11.2761 C.ar    1  UNL1        0.0009
      7 C          63.7658   90.6398   12.3627 C.ar    1  UNL1        0.0044
      8 C          64.2986   90.7639   13.7593 C.ar    1  UNL1        0.0537
      9 C          65.3614   91.7761   14.0694 C.ar    1  UNL1        0.0042
     10 C          65.8942   91.9003   15.4661 C.ar    1  UNL1        0.0001
     11 C          66.9569   92.9124   15.7761 C.ar    1  UNL1        0.0000
     12 C          67.4868   93.8004   14.6895 C.ar    1  UNL1       -0.0000
     13 C          66.9540   93.6763   13.2929 C.ar    1  UNL1       -0.0002
     14 C          65.8913   92.6641   12.9828 C.ar    1  UNL1        0.0010
     15 C          65.8883   93.4279   10.4995 C.3     1  UNL1        0.2826
     16 C          67.8226   94.1182    8.9084 C.3     1  UNL1        0.3201
     17 S          67.2384   93.1599    9.9036 S.O     1  UNL1        0.0405
     18 O          68.0045   91.9335   10.3028 O.co2   1  UNL1       -0.6809
     19 C          63.5574   87.5222   15.9254 C.ar    1  UNL1        0.0730
     20 C          63.1523   88.1108   17.2442 C.ar    1  UNL1        0.0180
     21 C          62.6224   87.2228   18.3308 C.ar    1  UNL1        0.0220
     22 C          62.4976   85.7462   18.0986 C.ar    1  UNL1        0.0991
     23 N          62.9026   85.1575   16.7797 N.ar    1  UNL1       -0.2380
     24 C          63.4325   86.0455   15.6930 C.ar    1  UNL1        0.1478
     25 C          63.8376   85.4569   14.3742 C.2     1  UNL1        0.2648
     26 O          65.2882   85.2275   14.0691 O.2     1  UNL1       -0.2684
     27 N          62.7920   85.0977   13.3605 N.am    1  UNL1       -0.2996
     28 H          61.8399   85.2483   13.5607 H       1  UNL1        0.1498
     29 C          63.1970   84.5091   12.0415 C.3     1  UNL1        0.0899
     30 C          63.1052   83.0282   11.8213 C.3     1  UNL1        0.0246
     31 C          63.4944   82.4414   10.4968 C.3     1  UNL1        0.0338
     32 C          63.4026   80.9605   10.2766 C.3     1  UNL1        0.1422
     33 O          62.9216   80.0664   11.3808 O.3     1  UNL1       -0.3538
     34 C          62.5325   80.6532   12.7053 C.3     1  UNL1        0.1422
     35 C          62.6243   82.1342   12.9255 C.3     1  UNL1        0.0338
@<TRIPOS>UNITY_ATOM_ATTR
17 1
charge 1
18 1
charge -1
@<TRIPOS>BOND
     1    16    17    1
     2    17    18    2
     3    17    15    1
     4    15     5    1
     5     5     6   ar
     6     6     7   ar
     7     7     8   ar
     8     8     1    1
     9     1     2    2
    10     1     3   am
    11     3    19    1
    12    19    20   ar
    13    20    21   ar
    14    21    22   ar
    15    22    23   ar
    16    23    24   ar
    17    24    25    1
    18    25    26    2
    19    25    27   am
    20    27    29    1
    21    29    30    1
    22    30    31    1
    23    31    32    1
    24    32    33    1
    25    33    34    1
    26    34    35    1
    27     8     9   ar
    28     9    10   ar
    29    10    11   ar
    30    11    12   ar
    31    12    13   ar
    32    13    14   ar
    33    14     5   ar
    34    24    19   ar
    35    35    30    1
    36    14     9   ar
    37     3     4    1
    38    27    28    1
