@<TRIPOS>MOLECULE
*****
 32 35 0 0 0
SMALL
GASTEIGER

@<TRIPOS>ATOM
      1 C          63.8798   88.0083   13.5661 C.ar    1  UNL1        0.0172
      2 C          64.7108   88.6761   14.6213 C.ar    1  UNL1        0.0028
      3 C          65.0440   90.1338   14.5025 C.ar    1  UNL1        0.0159
      4 C          64.5462   90.9237   13.3285 C.ar    1  UNL1        0.0648
      5 C          63.7152   90.2559   12.2733 C.ar    1  UNL1        0.0159
      6 C          63.3820   88.7982   12.3921 C.ar    1  UNL1        0.0028
      7 N          62.4055   81.1593   14.8111 N.pl3   1  UNL1       -0.3399
      8 C          62.5100   82.1944   13.7305 C.ar    1  UNL1        0.1680
      9 N          62.2623   81.9704   12.2681 N.ar    1  UNL1       -0.1302
     10 N          62.4797   83.2728   11.5564 N.ar    1  UNL1       -0.1275
     11 C          62.8616   84.3017   12.5789 C.ar    1  UNL1        0.1827
     12 N          63.1948   85.7594   12.4601 N.ar    1  UNL1       -0.3346
     13 C          63.5466   86.5506   13.6849 C.ar    1  UNL1        0.0771
     14 C          63.5653   85.8840   15.0285 C.ar    1  UNL1        0.1160
     15 N          63.2322   84.4264   15.1474 N.ar    1  UNL1       -0.2364
     16 C          62.8803   83.6352   13.9226 C.ar    1  UNL1        0.1496
     17 H          62.1542   80.2348   14.5845 H       1  UNL1        0.1438
     18 H          62.5884   81.4045   15.7469 H       1  UNL1        0.1438
     19 H          63.1825   86.1968   11.5782 H       1  UNL1        0.1675
     20 N          64.8793   92.3814   13.2098 N.pl3   1  UNL1       -0.2150
     21 H          64.5378   93.0203   13.8764 H       1  UNL1        0.1737
     22 S          65.7329   92.8656   12.0753 S.O2    1  UNL1        0.0744
     23 O          66.8890   93.0324   13.0164 O.2     1  UNL1       -0.1499
     24 O          64.5768   92.6989   11.1343 O.2     1  UNL1       -0.1499
     25 C          66.5865   93.3499   10.9409 C.ar    1  UNL1        0.1365
     26 C          67.4249   92.3778   10.1651 C.ar    1  UNL1        0.0211
     27 C          68.2785   92.8620    9.0307 C.ar    1  UNL1        0.0023
     28 C          68.2936   94.3184    8.6721 C.ar    1  UNL1        0.0123
     29 C          67.4552   95.2905    9.4479 C.ar    1  UNL1        0.0695
     30 CL         67.4703   96.7470    9.0893 Cl      1  UNL1       -0.0813
     31 C          66.6016   94.8063   10.5823 C.ar    1  UNL1        0.0870
     32 CL         65.7631   95.7785   11.3581 Cl      1  UNL1       -0.0800
@<TRIPOS>BOND
     1     7     8    1
     2     8     9   ar
     3     9    10   ar
     4    10    11   ar
     5    11    12   ar
     6    12    13   ar
     7    13     1    1
     8     1     2   ar
     9     2     3   ar
    10     3     4   ar
    11     4    20    1
    12    20    22    1
    13    22    23    2
    14    22    24    2
    15    22    25    1
    16    25    26   ar
    17    26    27   ar
    18    27    28   ar
    19    28    29   ar
    20    29    30    1
    21    29    31   ar
    22    31    32    1
    23     4     5   ar
    24     5     6   ar
    25    13    14   ar
    26    14    15   ar
    27    15    16   ar
    28    16     8   ar
    29    16    11    1
    30     6     1   ar
    31    31    25   ar
    32     7    17    1
    33     7    18    1
    34    12    19    1
    35    20    21    1
@<TRIPOS>MOLECULE
*****
 32 35 0 0 0
SMALL
GASTEIGER

@<TRIPOS>ATOM
      1 C          63.3676   87.5202   12.7133 C.ar    1  UNL1        0.0172
      2 C          62.8153   88.2951   11.5538 C.ar    1  UNL1        0.0028
      3 C          63.0455   89.7744   11.4625 C.ar    1  UNL1        0.0159
      4 C          63.8282   90.4790   12.5308 C.ar    1  UNL1        0.0648
      5 C          64.3805   89.7041   13.6903 C.ar    1  UNL1        0.0159
      6 C          64.1503   88.2247   13.7815 C.ar    1  UNL1        0.0028
      7 N          62.2485   80.4979   12.4538 N.pl3   1  UNL1       -0.3399
      8 C          62.4659   81.6518   13.3872 C.ar    1  UNL1        0.1680
      9 N          62.5107   81.5781   14.8847 N.ar    1  UNL1       -0.1302
     10 N          62.7493   82.9628   15.4099 N.ar    1  UNL1       -0.1275
     11 C          62.8519   83.8922   14.2370 C.ar    1  UNL1        0.1827
     12 N          63.0822   85.3716   14.1458 N.ar    1  UNL1       -0.3346
     13 C          63.1374   86.0407   12.8045 C.ar    1  UNL1        0.0771
     14 C          62.9622   85.2305   11.5544 C.ar    1  UNL1        0.1160
     15 N          62.7319   83.7511   11.6455 N.ar    1  UNL1       -0.2364
     16 C          62.6768   83.0820   12.9869 C.ar    1  UNL1        0.1496
     17 H          62.1188   79.5910   12.8141 H       1  UNL1        0.1438
     18 H          62.2354   80.6475   11.4808 H       1  UNL1        0.1438
     19 H          63.1971   85.9034   14.9663 H       1  UNL1        0.1675
     20 N          64.0584   91.9584   12.4395 N.pl3   1  UNL1       -0.2150
     21 H          63.4809   92.5783   12.9408 H       1  UNL1        0.1737
     22 S          65.1687   92.4933   11.5844 S.O2    1  UNL1        0.0744
     23 O          64.3253   92.2883   10.3610 O.2     1  UNL1       -0.1499
     24 O          66.0121   92.6983   12.8077 O.2     1  UNL1       -0.1499
     25 C          66.2790   93.0282   10.7293 C.ar    1  UNL1        0.1365
     26 C          67.3701   92.1132   10.2580 C.ar    1  UNL1        0.0211
     27 C          68.4804   92.6481    9.4029 C.ar    1  UNL1        0.0023
     28 C          68.4995   94.0980    9.0191 C.ar    1  UNL1        0.0123
     29 C          67.4083   95.0130    9.4903 C.ar    1  UNL1        0.0695
     30 CL         67.4274   96.4630    9.1065 Cl      1  UNL1       -0.0813
     31 C          66.2981   94.4781   10.3454 C.ar    1  UNL1        0.0870
     32 CL         65.2069   95.3932   10.8167 Cl      1  UNL1       -0.0800
@<TRIPOS>BOND
     1     7     8    1
     2     8     9   ar
     3     9    10   ar
     4    10    11   ar
     5    11    12   ar
     6    12    13   ar
     7    13     1    1
     8     1     2   ar
     9     2     3   ar
    10     3     4   ar
    11     4    20    1
    12    20    22    1
    13    22    23    2
    14    22    24    2
    15    22    25    1
    16    25    26   ar
    17    26    27   ar
    18    27    28   ar
    19    28    29   ar
    20    29    30    1
    21    29    31   ar
    22    31    32    1
    23     4     5   ar
    24     5     6   ar
    25    13    14   ar
    26    14    15   ar
    27    15    16   ar
    28    16     8   ar
    29    16    11    1
    30     6     1   ar
    31    31    25   ar
    32     7    17    1
    33     7    18    1
    34    12    19    1
    35    20    21    1
@<TRIPOS>MOLECULE
*****
 32 35 0 0 0
SMALL
GASTEIGER

@<TRIPOS>ATOM
      1 C          64.2943   88.8426   14.7428 C.ar    1  UNL1        0.0172
      2 C          63.5885   88.7028   16.0590 C.ar    1  UNL1        0.0028
      3 C          63.1278   87.3530   16.5233 C.ar    1  UNL1        0.0159
      4 C          63.3728   86.1428   15.6714 C.ar    1  UNL1        0.0648
      5 C          64.0787   86.2826   14.3553 C.ar    1  UNL1        0.0159
      6 C          64.5394   87.6325   13.8910 C.ar    1  UNL1        0.0028
      7 N          66.0331   95.1804   12.0150 N.pl3   1  UNL1       -0.3399
      8 C          66.3239   94.2284   13.1372 C.ar    1  UNL1        0.1680
      9 N          67.3131   94.4457   14.2436 N.ar    1  UNL1       -0.1302
     10 N          67.2771   93.2436   15.1402 N.ar    1  UNL1       -0.1275
     11 C          66.2656   92.2835   14.5878 C.ar    1  UNL1        0.1827
     12 N          65.8049   90.9336   15.0521 N.ar    1  UNL1       -0.3346
     13 C          64.7551   90.1925   14.2785 C.ar    1  UNL1        0.0771
     14 C          64.1660   90.8012   13.0406 C.ar    1  UNL1        0.1160
     15 N          64.6267   92.1510   12.5763 N.ar    1  UNL1       -0.2364
     16 C          65.6765   92.8922   13.3499 C.ar    1  UNL1        0.1496
     17 H          66.5126   96.0385   11.9607 H       1  UNL1        0.1438
     18 H          65.3627   94.9470   11.3328 H       1  UNL1        0.1438
     19 H          66.1916   90.5341   15.8646 H       1  UNL1        0.1675
     20 N          62.9121   84.7930   16.1358 N.pl3   1  UNL1       -0.2150
     21 H          62.6858   84.6491   17.0830 H       1  UNL1        0.1737
     22 S          62.7962   83.6624   15.1569 S.O2    1  UNL1        0.0744
     23 O          64.0831   83.0868   15.6693 O.2     1  UNL1       -0.1499
     24 O          61.5093   84.2379   14.6444 O.2     1  UNL1       -0.1499
     25 C          62.6803   82.5318   14.1779 C.ar    1  UNL1        0.1365
     26 C          61.9989   81.2577   14.5809 C.ar    1  UNL1        0.0211
     27 C          61.8830   80.1271   13.6020 C.ar    1  UNL1        0.0023
     28 C          62.4486   80.2705   12.2201 C.ar    1  UNL1        0.0123
     29 C          63.1300   81.5446   11.8172 C.ar    1  UNL1        0.0695
     30 CL         63.6955   81.6881   10.4353 Cl      1  UNL1       -0.0813
     31 C          63.2458   82.6752   12.7961 C.ar    1  UNL1        0.0870
     32 CL         63.9273   83.9493   12.3931 Cl      1  UNL1       -0.0800
@<TRIPOS>BOND
     1     7     8    1
     2     8     9   ar
     3     9    10   ar
     4    10    11   ar
     5    11    12   ar
     6    12    13   ar
     7    13     1    1
     8     1     2   ar
     9     2     3   ar
    10     3     4   ar
    11     4    20    1
    12    20    22    1
    13    22    23    2
    14    22    24    2
    15    22    25    1
    16    25    26   ar
    17    26    27   ar
    18    27    28   ar
    19    28    29   ar
    20    29    30    1
    21    29    31   ar
    22    31    32    1
    23     4     5   ar
    24     5     6   ar
    25    13    14   ar
    26    14    15   ar
    27    15    16   ar
    28    16     8   ar
    29    16    11    1
    30     6     1   ar
    31    31    25   ar
    32     7    17    1
    33     7    18    1
    34    12    19    1
    35    20    21    1
@<TRIPOS>MOLECULE
*****
 32 35 0 0 0
SMALL
GASTEIGER

@<TRIPOS>ATOM
      1 C          63.8463   87.6186   13.5164 C.ar    1  UNL1        0.0172
      2 C          63.2907   88.4167   12.3743 C.ar    1  UNL1        0.0028
      3 C          63.4929   89.9022   12.3290 C.ar    1  UNL1        0.0159
      4 C          64.2508   90.5899   13.4257 C.ar    1  UNL1        0.0648
      5 C          64.8064   89.7919   14.5678 C.ar    1  UNL1        0.0159
      6 C          64.6042   88.3062   14.6132 C.ar    1  UNL1        0.0028
      7 N          63.0622   80.6019   14.4011 N.pl3   1  UNL1       -0.3399
      8 C          62.9650   81.7099   13.3946 C.ar    1  UNL1        0.1680
      9 N          62.5759   81.5605   11.9537 N.ar    1  UNL1       -0.1302
     10 N          62.6101   82.9201   11.3211 N.ar    1  UNL1       -0.1275
     11 C          63.0204   83.9098   12.3710 C.ar    1  UNL1        0.1827
     12 N          63.2226   85.3954   12.3256 N.ar    1  UNL1       -0.3346
     13 C          63.6441   86.1330   13.5618 C.ar    1  UNL1        0.0771
     14 C          63.8634   85.3850   14.8433 C.ar    1  UNL1        0.1160
     15 N          63.6612   83.8994   14.8887 N.ar    1  UNL1       -0.2364
     16 C          63.2397   83.1618   13.6525 C.ar    1  UNL1        0.1496
     17 H          62.8610   79.6758   14.1346 H       1  UNL1        0.1438
     18 H          63.3274   80.8008   15.3281 H       1  UNL1        0.1438
     19 H          63.0787   85.8863   11.4844 H       1  UNL1        0.1675
     20 N          64.4529   92.0755   13.3804 N.pl3   1  UNL1       -0.2150
     21 H          64.0548   92.6479   14.0754 H       1  UNL1        0.1737
     22 S          65.2618   92.6889   12.2761 S.O2    1  UNL1        0.0744
     23 O          64.3554   92.0574   11.2614 O.2     1  UNL1       -0.1499
     24 O          66.1681   93.3205   13.2908 O.2     1  UNL1       -0.1499
     25 C          66.0706   93.3024   11.1718 C.ar    1  UNL1        0.1365
     26 C          65.6203   94.5837   10.5350 C.ar    1  UNL1        0.0211
     27 C          66.4291   95.1971    9.4307 C.ar    1  UNL1        0.0023
     28 C          67.6883   94.5293    8.9632 C.ar    1  UNL1        0.0123
     29 C          68.1386   93.2481    9.6000 C.ar    1  UNL1        0.0695
     30 CL         69.3977   92.5802    9.1325 Cl      1  UNL1       -0.0813
     31 C          67.3297   92.6346   10.7043 C.ar    1  UNL1        0.0870
     32 CL         67.7801   91.3533   11.3411 Cl      1  UNL1       -0.0800
@<TRIPOS>BOND
     1     7     8    1
     2     8     9   ar
     3     9    10   ar
     4    10    11   ar
     5    11    12   ar
     6    12    13   ar
     7    13     1    1
     8     1     2   ar
     9     2     3   ar
    10     3     4   ar
    11     4    20    1
    12    20    22    1
    13    22    23    2
    14    22    24    2
    15    22    25    1
    16    25    26   ar
    17    26    27   ar
    18    27    28   ar
    19    28    29   ar
    20    29    30    1
    21    29    31   ar
    22    31    32    1
    23     4     5   ar
    24     5     6   ar
    25    13    14   ar
    26    14    15   ar
    27    15    16   ar
    28    16     8   ar
    29    16    11    1
    30     6     1   ar
    31    31    25   ar
    32     7    17    1
    33     7    18    1
    34    12    19    1
    35    20    21    1
@<TRIPOS>MOLECULE
*****
 32 35 0 0 0
SMALL
GASTEIGER

@<TRIPOS>ATOM
      1 C          64.6739   90.1733   13.4049 C.ar    1  UNL1        0.0172
      2 C          65.0562   89.6419   14.7545 C.ar    1  UNL1        0.0028
      3 C          64.6419   88.2587   15.1607 C.ar    1  UNL1        0.0159
      4 C          63.8453   87.4068   14.2173 C.ar    1  UNL1        0.0648
      5 C          63.4630   87.9383   12.8677 C.ar    1  UNL1        0.0159
      6 C          63.8773   89.3216   12.4615 C.ar    1  UNL1        0.0028
      7 N          66.7766   96.8537   12.1465 N.pl3   1  UNL1       -0.3399
      8 C          66.2558   95.6087   11.4918 C.ar    1  UNL1        0.1680
      9 N          65.9825   95.4306   10.0277 N.ar    1  UNL1       -0.1302
     10 N          65.4745   94.0350    9.8174 N.ar    1  UNL1       -0.1275
     11 C          65.4339   93.3505   11.1515 C.ar    1  UNL1        0.1827
     12 N          65.0196   91.9673   11.5576 N.ar    1  UNL1       -0.3346
     13 C          65.0881   91.5566   12.9987 C.ar    1  UNL1        0.0771
     14 C          65.5710   92.5292   14.0335 C.ar    1  UNL1        0.1160
     15 N          65.9853   93.9124   13.6274 N.ar    1  UNL1       -0.2364
     16 C          65.9167   94.3231   12.1864 C.ar    1  UNL1        0.1496
     17 H          66.9707   97.6513   11.6031 H       1  UNL1        0.1438
     18 H          66.9245   96.8732   13.1197 H       1  UNL1        0.1438
     19 H          64.7027   91.3290   10.8784 H       1  UNL1        0.1675
     20 N          63.4311   86.0236   14.6236 N.pl3   1  UNL1       -0.2150
     21 H          63.1368   85.8491   15.5467 H       1  UNL1        0.1737
     22 S          63.4651   84.9063   13.6233 S.O2    1  UNL1        0.0744
     23 O          62.0299   85.1721   13.2775 O.2     1  UNL1       -0.1499
     24 O          64.9003   84.6405   13.9691 O.2     1  UNL1       -0.1499
     25 C          63.4992   83.7890   12.6231 C.ar    1  UNL1        0.1365
     26 C          64.0158   84.0386   11.2371 C.ar    1  UNL1        0.0211
     27 C          64.0498   82.9213   10.2369 C.ar    1  UNL1        0.0023
     28 C          63.5673   81.5544   10.6226 C.ar    1  UNL1        0.0123
     29 C          63.0508   81.3049   12.0085 C.ar    1  UNL1        0.0695
     30 CL         62.5682   79.9379   12.3942 Cl      1  UNL1       -0.0813
     31 C          63.0167   82.4221   13.0087 C.ar    1  UNL1        0.0870
     32 CL         62.5001   82.1725   14.3947 Cl      1  UNL1       -0.0800
@<TRIPOS>BOND
     1     7     8    1
     2     8     9   ar
     3     9    10   ar
     4    10    11   ar
     5    11    12   ar
     6    12    13   ar
     7    13     1    1
     8     1     2   ar
     9     2     3   ar
    10     3     4   ar
    11     4    20    1
    12    20    22    1
    13    22    23    2
    14    22    24    2
    15    22    25    1
    16    25    26   ar
    17    26    27   ar
    18    27    28   ar
    19    28    29   ar
    20    29    30    1
    21    29    31   ar
    22    31    32    1
    23     4     5   ar
    24     5     6   ar
    25    13    14   ar
    26    14    15   ar
    27    15    16   ar
    28    16     8   ar
    29    16    11    1
    30     6     1   ar
    31    31    25   ar
    32     7    17    1
    33     7    18    1
    34    12    19    1
    35    20    21    1
@<TRIPOS>MOLECULE
*****
 32 35 0 0 0
SMALL
GASTEIGER

@<TRIPOS>ATOM
      1 C          62.7979   86.2485   11.8905 C.ar    1  UNL1        0.0172
      2 C          62.1387   86.9148   10.7194 C.ar    1  UNL1        0.0028
      3 C          62.1761   88.4085   10.5876 C.ar    1  UNL1        0.0159
      4 C          62.8728   89.2360   11.6269 C.ar    1  UNL1        0.0648
      5 C          63.5319   88.5696   12.7980 C.ar    1  UNL1        0.0159
      6 C          63.4945   87.0759   12.9298 C.ar    1  UNL1        0.0028
      7 N          62.7340   79.1334   11.8329 N.pl3   1  UNL1       -0.3399
      8 C          62.5979   80.3345   12.7211 C.ar    1  UNL1        0.1680
      9 N          62.3503   80.3137   14.2003 N.ar    1  UNL1       -0.1302
     10 N          62.2849   81.7337   14.6793 N.ar    1  UNL1       -0.1275
     11 C          62.4920   82.6321   13.4961 C.ar    1  UNL1        0.1827
     12 N          62.5295   84.1258   13.3643 N.ar    1  UNL1       -0.3346
     13 C          62.7604   84.7547   12.0223 C.ar    1  UNL1        0.0771
     14 C          62.9539   83.8900   10.8120 C.ar    1  UNL1        0.1160
     15 N          62.9164   82.3963   10.9438 N.ar    1  UNL1       -0.2364
     16 C          62.6855   81.7673   12.2858 C.ar    1  UNL1        0.1496
     17 H          62.6609   78.2286   12.2140 H       1  UNL1        0.1438
     18 H          62.8964   79.2498   10.8689 H       1  UNL1        0.1438
     19 H          62.4025   84.6933   14.1587 H       1  UNL1        0.1675
     20 N          62.9102   90.7297   11.4951 N.pl3   1  UNL1       -0.2150
     21 H          62.2196   91.1949   10.9699 H       1  UNL1        0.1737
     22 S          63.9998   91.5145   12.1635 S.O2    1  UNL1        0.0744
     23 O          64.7796   91.5232   10.8822 O.2     1  UNL1       -0.1499
     24 O          63.2200   91.5058   13.4449 O.2     1  UNL1       -0.1499
     25 C          65.0894   92.2994   12.8319 C.ar    1  UNL1        0.1365
     26 C          65.5555   93.5941   12.2350 C.ar    1  UNL1        0.0211
     27 C          66.6451   94.3789   12.9034 C.ar    1  UNL1        0.0023
     28 C          67.2686   93.8691   14.1688 C.ar    1  UNL1        0.0123
     29 C          66.8025   92.5743   14.7657 C.ar    1  UNL1        0.0695
     30 CL         67.4260   92.0644   16.0312 Cl      1  UNL1       -0.0813
     31 C          65.7129   91.7895   14.0973 C.ar    1  UNL1        0.0870
     32 CL         65.2468   90.4947   14.6943 Cl      1  UNL1       -0.0800
@<TRIPOS>BOND
     1     7     8    1
     2     8     9   ar
     3     9    10   ar
     4    10    11   ar
     5    11    12   ar
     6    12    13   ar
     7    13     1    1
     8     1     2   ar
     9     2     3   ar
    10     3     4   ar
    11     4    20    1
    12    20    22    1
    13    22    23    2
    14    22    24    2
    15    22    25    1
    16    25    26   ar
    17    26    27   ar
    18    27    28   ar
    19    28    29   ar
    20    29    30    1
    21    29    31   ar
    22    31    32    1
    23     4     5   ar
    24     5     6   ar
    25    13    14   ar
    26    14    15   ar
    27    15    16   ar
    28    16     8   ar
    29    16    11    1
    30     6     1   ar
    31    31    25   ar
    32     7    17    1
    33     7    18    1
    34    12    19    1
    35    20    21    1
@<TRIPOS>MOLECULE
*****
 32 35 0 0 0
SMALL
GASTEIGER

@<TRIPOS>ATOM
      1 C          64.0454   91.0549   13.2253 C.ar    1  UNL1        0.0172
      2 C          63.6932   91.3627   11.8001 C.ar    1  UNL1        0.0028
      3 C          62.4199   90.8323   11.2108 C.ar    1  UNL1        0.0159
      4 C          61.4987   89.9939   12.0467 C.ar    1  UNL1        0.0648
      5 C          61.8509   89.6861   13.4719 C.ar    1  UNL1        0.0159
      6 C          63.1243   90.2166   14.0612 C.ar    1  UNL1        0.0028
      7 N          69.7049   93.7994   16.5524 N.pl3   1  UNL1       -0.3399
      8 C          69.2696   93.0570   15.3239 C.ar    1  UNL1        0.1680
      9 N          70.1622   92.5949   14.2104 N.ar    1  UNL1       -0.1302
     10 N          69.3095   91.8986   13.1915 N.ar    1  UNL1       -0.1275
     11 C          67.8900   91.9304   13.6752 C.ar    1  UNL1        0.1827
     12 N          66.6167   91.3999   13.0860 N.ar    1  UNL1       -0.3346
     13 C          65.3188   91.5853   13.8146 C.ar    1  UNL1        0.0771
     14 C          65.2941   92.3013   15.1325 C.ar    1  UNL1        0.1160
     15 N          66.5674   92.8317   15.7218 N.ar    1  UNL1       -0.2364
     16 C          67.8653   92.6463   14.9931 C.ar    1  UNL1        0.1496
     17 H          70.6546   94.0250   16.6806 H       1  UNL1        0.1438
     18 H          69.0409   94.0611   17.2305 H       1  UNL1        0.1438
     19 H          66.6329   90.9300   12.2210 H       1  UNL1        0.1675
     20 N          60.2254   89.4635   11.4575 N.pl3   1  UNL1       -0.2150
     21 H          59.3570   89.7846   11.7920 H       1  UNL1        0.1737
     22 S          60.2753   88.4438   10.3585 S.O2    1  UNL1        0.0744
     23 O          60.1255   89.5345    9.3397 O.2     1  UNL1       -0.1499
     24 O          60.4251   87.3531   11.3773 O.2     1  UNL1       -0.1499
     25 C          60.3251   87.4241    9.2595 C.ar    1  UNL1        0.1365
     26 C          59.1095   87.1670    8.4193 C.ar    1  UNL1        0.0211
     27 C          59.1594   86.1473    7.3203 C.ar    1  UNL1        0.0023
     28 C          60.4249   85.3847    7.0616 C.ar    1  UNL1        0.0123
     29 C          61.6405   85.6419    7.9018 C.ar    1  UNL1        0.0695
     30 CL         62.9061   84.8793    7.6431 Cl      1  UNL1       -0.0813
     31 C          61.5906   86.6616    9.0008 C.ar    1  UNL1        0.0870
     32 CL         62.8063   86.9187    9.8411 Cl      1  UNL1       -0.0800
@<TRIPOS>BOND
     1     7     8    1
     2     8     9   ar
     3     9    10   ar
     4    10    11   ar
     5    11    12   ar
     6    12    13   ar
     7    13     1    1
     8     1     2   ar
     9     2     3   ar
    10     3     4   ar
    11     4    20    1
    12    20    22    1
    13    22    23    2
    14    22    24    2
    15    22    25    1
    16    25    26   ar
    17    26    27   ar
    18    27    28   ar
    19    28    29   ar
    20    29    30    1
    21    29    31   ar
    22    31    32    1
    23     4     5   ar
    24     5     6   ar
    25    13    14   ar
    26    14    15   ar
    27    15    16   ar
    28    16     8   ar
    29    16    11    1
    30     6     1   ar
    31    31    25   ar
    32     7    17    1
    33     7    18    1
    34    12    19    1
    35    20    21    1
@<TRIPOS>MOLECULE
*****
 32 35 0 0 0
SMALL
GASTEIGER

@<TRIPOS>ATOM
      1 C          61.7674   93.9204    1.5270 C.ar    1  UNL1        0.0172
      2 C          61.0004   95.1064    1.0220 C.ar    1  UNL1        0.0028
      3 C          61.5899   95.9827   -0.0431 C.ar    1  UNL1        0.0159
      4 C          62.9465   95.6730   -0.6033 C.ar    1  UNL1        0.0648
      5 C          63.7135   94.4870   -0.0983 C.ar    1  UNL1        0.0159
      6 C          63.1239   93.6107    0.9669 C.ar    1  UNL1        0.0028
      7 N          59.6076   89.5086    6.6751 N.pl3   1  UNL1       -0.3399
      8 C          59.1409   90.5582    5.7105 C.ar    1  UNL1        0.1680
      9 N          57.7344   91.0587    5.5647 N.ar    1  UNL1       -0.1302
     10 N          57.7230   92.1014    4.4864 N.ar    1  UNL1       -0.1275
     11 C          59.1224   92.2453    3.9659 C.ar    1  UNL1        0.1827
     12 N          59.7119   93.1216    2.9008 N.ar    1  UNL1       -0.3346
     13 C          61.1778   93.0441    2.5922 C.ar    1  UNL1        0.0771
     14 C          62.0541   92.0903    3.3488 C.ar    1  UNL1        0.1160
     15 N          61.4646   91.2140    4.4139 N.ar    1  UNL1       -0.2364
     16 C          59.9987   91.2915    4.7224 C.ar    1  UNL1        0.1496
     17 H          58.9653   89.0823    7.2876 H       1  UNL1        0.1438
     18 H          60.5562   89.2459    6.6958 H       1  UNL1        0.1438
     19 H          59.1368   93.7476    2.4042 H       1  UNL1        0.1675
     20 N          63.5360   96.5493   -1.6684 N.pl3   1  UNL1       -0.2150
     21 H          63.5513   97.5264   -1.5492 H       1  UNL1        0.1737
     22 S          64.1023   95.9368   -2.9151 S.O2    1  UNL1        0.0744
     23 O          65.4865   96.0734   -2.3534 O.2     1  UNL1       -0.1499
     24 O          62.7181   95.8003   -3.4767 O.2     1  UNL1       -0.1499
     25 C          64.6686   95.3244   -4.1618 C.ar    1  UNL1        0.1365
     26 C          65.3430   96.1910   -5.1835 C.ar    1  UNL1        0.0211
     27 C          65.9093   95.5785   -6.4302 C.ar    1  UNL1        0.0023
     28 C          65.8011   94.0995   -6.6551 C.ar    1  UNL1        0.0123
     29 C          65.1267   93.2329   -5.6333 C.ar    1  UNL1        0.0695
     30 CL         65.0185   91.7537   -5.8582 Cl      1  UNL1       -0.0813
     31 C          64.5604   93.8453   -4.3867 C.ar    1  UNL1        0.0870
     32 CL         63.8859   92.9786   -3.3648 Cl      1  UNL1       -0.0800
@<TRIPOS>BOND
     1     7     8    1
     2     8     9   ar
     3     9    10   ar
     4    10    11   ar
     5    11    12   ar
     6    12    13   ar
     7    13     1    1
     8     1     2   ar
     9     2     3   ar
    10     3     4   ar
    11     4    20    1
    12    20    22    1
    13    22    23    2
    14    22    24    2
    15    22    25    1
    16    25    26   ar
    17    26    27   ar
    18    27    28   ar
    19    28    29   ar
    20    29    30    1
    21    29    31   ar
    22    31    32    1
    23     4     5   ar
    24     5     6   ar
    25    13    14   ar
    26    14    15   ar
    27    15    16   ar
    28    16     8   ar
    29    16    11    1
    30     6     1   ar
    31    31    25   ar
    32     7    17    1
    33     7    18    1
    34    12    19    1
    35    20    21    1
@<TRIPOS>MOLECULE
*****
 32 35 0 0 0
SMALL
GASTEIGER

@<TRIPOS>ATOM
      1 C          57.1996   93.4539   -2.3486 C.ar    1  UNL1        0.0172
      2 C          57.8343   92.8653   -1.1236 C.ar    1  UNL1        0.0028
      3 C          58.5089   93.7588   -0.1254 C.ar    1  UNL1        0.0159
      4 C          58.5488   95.2411   -0.3522 C.ar    1  UNL1        0.0648
      5 C          57.9140   95.8298   -1.5772 C.ar    1  UNL1        0.0159
      6 C          57.2394   94.9361   -2.5754 C.ar    1  UNL1        0.0028
      7 N          54.1302   89.7027   -7.5581 N.pl3   1  UNL1       -0.3399
      8 C          54.4640   89.6883   -6.0958 C.ar    1  UNL1        0.1680
      9 N          54.1446   88.5865   -5.1293 N.ar    1  UNL1       -0.1302
     10 N          54.6590   88.9905   -3.7794 N.ar    1  UNL1       -0.1275
     11 C          55.2964   90.3419   -3.9117 C.ar    1  UNL1        0.1827
     12 N          55.9710   91.2355   -2.9134 N.ar    1  UNL1       -0.3346
     13 C          56.5250   92.5603   -3.3468 C.ar    1  UNL1        0.0771
     14 C          56.4044   92.9915   -4.7784 C.ar    1  UNL1        0.1160
     15 N          55.7299   92.0980   -5.7766 N.ar    1  UNL1       -0.2364
     16 C          55.1759   90.7732   -5.3433 C.ar    1  UNL1        0.1496
     17 H          53.6583   88.9392   -7.9628 H       1  UNL1        0.1438
     18 H          54.3829   90.4755   -8.1131 H       1  UNL1        0.1438
     19 H          56.0501   90.9524   -1.9738 H       1  UNL1        0.1675
     20 N          59.2233   96.1347    0.6460 N.pl3   1  UNL1       -0.2150
     21 H          58.7175   96.8606    1.0778 H       1  UNL1        0.1737
     22 S          60.6687   95.9222    0.9865 S.O2    1  UNL1        0.0744
     23 O          60.2790   95.4839    2.3671 O.2     1  UNL1       -0.1499
     24 O          61.0583   96.3606   -0.3941 O.2     1  UNL1       -0.1499
     25 C          62.1140   95.7098    1.3270 C.ar    1  UNL1        0.1365
     26 C          62.9060   96.8157    1.9591 C.ar    1  UNL1        0.0211
     27 C          64.3513   96.6033    2.2995 C.ar    1  UNL1        0.0023
     28 C          65.0046   95.2849    2.0079 C.ar    1  UNL1        0.0123
     29 C          64.2126   94.1790    1.3757 C.ar    1  UNL1        0.0695
     30 CL         64.8659   92.8606    1.0840 Cl      1  UNL1       -0.0813
     31 C          62.7673   94.3915    1.0353 C.ar    1  UNL1        0.0870
     32 CL         61.9752   93.2855    0.4031 Cl      1  UNL1       -0.0800
@<TRIPOS>BOND
     1     7     8    1
     2     8     9   ar
     3     9    10   ar
     4    10    11   ar
     5    11    12   ar
     6    12    13   ar
     7    13     1    1
     8     1     2   ar
     9     2     3   ar
    10     3     4   ar
    11     4    20    1
    12    20    22    1
    13    22    23    2
    14    22    24    2
    15    22    25    1
    16    25    26   ar
    17    26    27   ar
    18    27    28   ar
    19    28    29   ar
    20    29    30    1
    21    29    31   ar
    22    31    32    1
    23     4     5   ar
    24     5     6   ar
    25    13    14   ar
    26    14    15   ar
    27    15    16   ar
    28    16     8   ar
    29    16    11    1
    30     6     1   ar
    31    31    25   ar
    32     7    17    1
    33     7    18    1
    34    12    19    1
    35    20    21    1
