@<TRIPOS>MOLECULE
*****
 19 20 0 0 0
SMALL
GASTEIGER

@<TRIPOS>ATOM
      1 N          63.6361   82.6836   13.4760 N.3     1  UNL1       -0.2702
      2 C          61.4881   81.4469   14.2552 C.3     1  UNL1        0.0173
      3 C          62.6240   81.5929   13.2863 C.3     1  UNL1        0.0579
      4 C          62.7476   80.6482   12.1278 C.3     1  UNL1        0.0173
      5 C          64.2467   83.3560   12.2824 C.3     1  UNL1        0.0991
      6 C          63.4028   84.2254   11.3980 C.ar    1  UNL1       -0.0053
      7 C          62.3920   85.1539   12.0031 C.ar    1  UNL1       -0.0020
      8 C          61.5482   86.0232   11.1187 C.ar    1  UNL1        0.0120
      9 C          61.7152   85.9641    9.6292 C.ar    1  UNL1        0.0682
     10 CL         60.8713   86.8335    8.7448 Cl      1  UNL1       -0.0814
     11 C          62.7259   85.0356    9.0241 C.ar    1  UNL1        0.0679
     12 CL         62.8929   84.9765    7.5346 Cl      1  UNL1       -0.0814
     13 C          63.5698   84.1663    9.9085 C.ar    1  UNL1        0.0093
     14 C          64.0376   83.1018   14.8595 C.3     1  UNL1        0.0750
     15 C          63.8089   84.5133   15.3124 C.3     1  UNL1        0.0474
     16 C          64.4930   85.8271   15.0757 C.3     1  UNL1        0.0713
     17 N          63.4856   86.5097   15.9528 N.3     1  UNL1       -0.2973
     18 C          62.8015   85.1958   16.1895 C.3     1  UNL1        0.0713
     19 H          62.9095   87.1977   15.4679 H       1  UNL1        0.1233
@<TRIPOS>BOND
     1     2     3    1
     2     3     4    1
     3     3     1    1
     4     1     5    1
     5     5     6    1
     6     6     7   ar
     7     7     8   ar
     8     8     9   ar
     9     9    10    1
    10     9    11   ar
    11    11    12    1
    12    11    13   ar
    13     1    14    1
    14    14    15    1
    15    15    16    1
    16    16    17    1
    17    17    18    1
    18    13     6   ar
    19    18    15    1
    20    17    19    1
@<TRIPOS>MOLECULE
*****
 19 20 0 0 0
SMALL
GASTEIGER

@<TRIPOS>ATOM
      1 N          63.3079   84.0981   13.9101 N.3     1  UNL1       -0.2702
      2 C          64.1869   83.3934   11.5690 C.3     1  UNL1        0.0173
      3 C          63.2851   84.2405   12.4171 C.3     1  UNL1        0.0579
      4 C          62.3606   85.2301   11.7721 C.3     1  UNL1        0.0173
      5 C          64.3426   84.8247   14.7171 C.3     1  UNL1        0.0991
      6 C          64.0667   86.2125   15.2153 C.ar    1  UNL1       -0.0053
      7 C          63.3618   86.4133   16.5240 C.ar    1  UNL1       -0.0020
      8 C          63.0860   87.8010   17.0220 C.ar    1  UNL1        0.0120
      9 C          63.5151   88.9879   16.2114 C.ar    1  UNL1        0.0682
     10 CL         63.2393   90.3757   16.7095 Cl      1  UNL1       -0.0814
     11 C          64.2200   88.7871   14.9027 C.ar    1  UNL1        0.0679
     12 CL         64.6491   89.9740   14.0920 Cl      1  UNL1       -0.0814
     13 C          64.4958   87.3994   14.4046 C.ar    1  UNL1        0.0093
     14 C          62.2959   83.2289   14.5961 C.3     1  UNL1        0.0750
     15 C          62.1247   81.8000   14.1731 C.3     1  UNL1        0.0474
     16 C          60.9504   80.8962   13.9404 C.3     1  UNL1        0.0713
     17 N          61.8826   79.7792   13.5750 N.3     1  UNL1       -0.2973
     18 C          63.0568   80.6831   13.8076 C.3     1  UNL1        0.0713
     19 H          61.7893   79.4574   12.6116 H       1  UNL1        0.1233
@<TRIPOS>BOND
     1     2     3    1
     2     3     4    1
     3     3     1    1
     4     1     5    1
     5     5     6    1
     6     6     7   ar
     7     7     8   ar
     8     8     9   ar
     9     9    10    1
    10     9    11   ar
    11    11    12    1
    12    11    13   ar
    13     1    14    1
    14    14    15    1
    15    15    16    1
    16    16    17    1
    17    17    18    1
    18    13     6   ar
    19    18    15    1
    20    17    19    1
@<TRIPOS>MOLECULE
*****
 19 20 0 0 0
SMALL
GASTEIGER

@<TRIPOS>ATOM
      1 N          63.4062   84.1081   14.5321 N.3     1  UNL1       -0.2702
      2 C          62.9823   85.5610   16.6438 C.3     1  UNL1        0.0173
      3 C          63.7420   85.3013   15.3767 C.3     1  UNL1        0.0579
      4 C          64.8375   86.2348   14.9543 C.3     1  UNL1        0.0173
      5 C          64.1634   83.8504   13.2632 C.3     1  UNL1        0.0991
      6 C          63.6008   84.3041   11.9487 C.ar    1  UNL1       -0.0053
      7 C          64.1014   83.7003   10.6702 C.ar    1  UNL1       -0.0020
      8 C          63.5388   84.1541    9.3558 C.ar    1  UNL1        0.0120
      9 C          62.4757   85.2116    9.3200 C.ar    1  UNL1        0.0682
     10 CL         61.9131   85.6654    8.0056 Cl      1  UNL1       -0.0814
     11 C          61.9751   85.8154   10.5986 C.ar    1  UNL1        0.0679
     12 CL         60.9120   86.8730   10.5628 Cl      1  UNL1       -0.0814
     13 C          62.5377   85.3617   11.9129 C.ar    1  UNL1        0.0093
     14 C          62.3131   83.1725   14.9565 C.3     1  UNL1        0.0750
     15 C          62.1916   81.8215   14.3162 C.3     1  UNL1        0.0474
     16 C          63.1573   80.8356   13.7283 C.3     1  UNL1        0.0713
     17 N          62.0198   79.9109   13.4106 N.3     1  UNL1       -0.2973
     18 C          61.0541   80.8968   13.9985 C.3     1  UNL1        0.0713
     19 H          62.0574   79.0194   13.9049 H       1  UNL1        0.1233
@<TRIPOS>BOND
     1     2     3    1
     2     3     4    1
     3     3     1    1
     4     1     5    1
     5     5     6    1
     6     6     7   ar
     7     7     8   ar
     8     8     9   ar
     9     9    10    1
    10     9    11   ar
    11    11    12    1
    12    11    13   ar
    13     1    14    1
    14    14    15    1
    15    15    16    1
    16    16    17    1
    17    17    18    1
    18    13     6   ar
    19    18    15    1
    20    17    19    1
@<TRIPOS>MOLECULE
*****
 19 20 0 0 0
SMALL
GASTEIGER

@<TRIPOS>ATOM
      1 N          60.9773   86.7260    9.3144 N.3     1  UNL1       -0.2702
      2 C          58.9319   86.8281    7.7156 C.3     1  UNL1        0.0173
      3 C          60.2906   86.2900    8.0542 C.3     1  UNL1        0.0579
      4 C          60.9624   85.3158    7.1324 C.3     1  UNL1        0.0173
      5 C          62.4208   86.3854    9.5384 C.3     1  UNL1        0.0991
      6 C          62.7897   85.1833   10.3563 C.ar    1  UNL1       -0.0053
      7 C          63.4954   84.0264    9.7132 C.ar    1  UNL1       -0.0020
      8 C          63.8642   82.8244   10.5311 C.ar    1  UNL1        0.0120
      9 C          63.5273   82.7792   11.9921 C.ar    1  UNL1        0.0682
     10 CL         63.8961   81.5771   12.8100 Cl      1  UNL1       -0.0814
     11 C          62.8216   83.9361   12.6352 C.ar    1  UNL1        0.0679
     12 CL         62.4846   83.8909   14.0962 Cl      1  UNL1       -0.0814
     13 C          62.4527   85.1381   11.8173 C.ar    1  UNL1        0.0093
     14 C          60.2204   87.5026   10.3508 C.3     1  UNL1        0.0750
     15 C          60.7392   88.8290   10.8213 C.3     1  UNL1        0.0474
     16 C          60.2539   90.2462   10.7428 C.3     1  UNL1        0.0713
     17 N          61.4730   90.7049   11.4867 N.3     1  UNL1       -0.2973
     18 C          61.9583   89.2878   11.5652 C.3     1  UNL1        0.0713
     19 H          61.2732   91.1275   12.3933 H       1  UNL1        0.1233
@<TRIPOS>BOND
     1     2     3    1
     2     3     4    1
     3     3     1    1
     4     1     5    1
     5     5     6    1
     6     6     7   ar
     7     7     8   ar
     8     8     9   ar
     9     9    10    1
    10     9    11   ar
    11    11    12    1
    12    11    13   ar
    13     1    14    1
    14    14    15    1
    15    15    16    1
    16    16    17    1
    17    17    18    1
    18    13     6   ar
    19    18    15    1
    20    17    19    1
@<TRIPOS>MOLECULE
*****
 19 20 0 0 0
SMALL
GASTEIGER

@<TRIPOS>ATOM
      1 N          62.9701   84.6550   11.3780 N.3     1  UNL1       -0.2702
      2 C          64.2275   82.7339   10.1621 C.3     1  UNL1        0.0173
      3 C          63.4863   84.0371   10.1124 C.3     1  UNL1        0.0579
      4 C          63.2614   84.7223    8.7972 C.3     1  UNL1        0.0173
      5 C          61.8451   85.6457   11.3244 C.3     1  UNL1        0.0991
      6 C          62.1377   87.1023   11.1179 C.ar    1  UNL1       -0.0053
      7 C          61.6807   87.7889    9.8650 C.ar    1  UNL1       -0.0020
      8 C          61.9732   89.2454    9.6586 C.ar    1  UNL1        0.0120
      9 C          62.7228   90.0155   10.7050 C.ar    1  UNL1        0.0682
     10 CL         63.0154   91.4722   10.4985 Cl      1  UNL1       -0.0814
     11 C          63.1799   89.3290   11.9579 C.ar    1  UNL1        0.0679
     12 CL         63.9295   90.0991   13.0043 Cl      1  UNL1       -0.0814
     13 C          62.8873   87.8724   12.1643 C.ar    1  UNL1        0.0093
     14 C          63.5789   84.2822   12.6973 C.3     1  UNL1        0.0750
     15 C          62.9389   83.2244   13.5465 C.3     1  UNL1        0.0474
     16 C          62.4452   81.8280   13.3086 C.3     1  UNL1        0.0713
     17 N          62.0336   81.7283   14.7476 N.3     1  UNL1       -0.2973
     18 C          62.5273   83.1246   14.9855 C.3     1  UNL1        0.0713
     19 H          62.5348   81.0138   15.2755 H       1  UNL1        0.1233
@<TRIPOS>BOND
     1     2     3    1
     2     3     4    1
     3     3     1    1
     4     1     5    1
     5     5     6    1
     6     6     7   ar
     7     7     8   ar
     8     8     9   ar
     9     9    10    1
    10     9    11   ar
    11    11    12    1
    12    11    13   ar
    13     1    14    1
    14    14    15    1
    15    15    16    1
    16    16    17    1
    17    17    18    1
    18    13     6   ar
    19    18    15    1
    20    17    19    1
@<TRIPOS>MOLECULE
*****
 19 20 0 0 0
SMALL
GASTEIGER

@<TRIPOS>ATOM
      1 N          63.1311   90.1498   12.4017 N.3     1  UNL1       -0.2702
      2 C          64.9545   91.9871   12.1791 C.3     1  UNL1        0.0173
      3 C          63.8228   91.2014   11.5858 C.3     1  UNL1        0.0579
      4 C          63.3828   91.4673   10.1767 C.3     1  UNL1        0.0173
      5 C          61.7098   89.7790   12.0978 C.3     1  UNL1        0.0991
      6 C          61.4063   88.8209   10.9843 C.ar    1  UNL1       -0.0053
      7 C          60.3026   89.1233   10.0145 C.ar    1  UNL1       -0.0020
      8 C          59.9992   88.1651    8.9011 C.ar    1  UNL1        0.0120
      9 C          60.7994   86.9046    8.7573 C.ar    1  UNL1        0.0682
     10 CL         60.4959   85.9464    7.6438 Cl      1  UNL1       -0.0814
     11 C          61.9031   86.6022    9.7271 C.ar    1  UNL1        0.0679
     12 CL         62.7033   85.3416    9.5833 Cl      1  UNL1       -0.0814
     13 C          62.2065   87.5603   10.8405 C.ar    1  UNL1        0.0093
     14 C          63.8608   89.4689   13.5216 C.3     1  UNL1        0.0750
     15 C          63.6707   89.9361   14.9342 C.3     1  UNL1        0.0474
     16 C          63.0448   89.3564   16.1679 C.3     1  UNL1        0.0713
     17 N          63.4017   90.5969   16.9319 N.3     1  UNL1       -0.2973
     18 C          64.0276   91.1766   15.6982 C.3     1  UNL1        0.0713
     19 H          64.0575   90.4403   17.6973 H       1  UNL1        0.1233
@<TRIPOS>BOND
     1     2     3    1
     2     3     4    1
     3     3     1    1
     4     1     5    1
     5     5     6    1
     6     6     7   ar
     7     7     8   ar
     8     8     9   ar
     9     9    10    1
    10     9    11   ar
    11    11    12    1
    12    11    13   ar
    13     1    14    1
    14    14    15    1
    15    15    16    1
    16    16    17    1
    17    17    18    1
    18    13     6   ar
    19    18    15    1
    20    17    19    1
@<TRIPOS>MOLECULE
*****
 19 20 0 0 0
SMALL
GASTEIGER

@<TRIPOS>ATOM
      1 N          61.8559   87.1876   10.3297 N.3     1  UNL1       -0.2702
      2 C          63.1842   88.1326   12.3527 C.3     1  UNL1        0.0173
      3 C          62.5388   88.3346   11.0137 C.3     1  UNL1        0.0579
      4 C          62.5763   89.6836   10.3590 C.3     1  UNL1        0.0173
      5 C          62.6664   86.0488    9.7854 C.3     1  UNL1        0.0991
      6 C          62.9627   84.8588   10.6493 C.ar    1  UNL1       -0.0053
      7 C          63.7225   83.6943   10.0868 C.ar    1  UNL1       -0.0020
      8 C          64.0187   82.5044   10.9507 C.ar    1  UNL1        0.0120
      9 C          63.5550   82.4790   12.3770 C.ar    1  UNL1        0.0682
     10 CL         63.8513   81.2889   13.2408 Cl      1  UNL1       -0.0814
     11 C          62.7951   83.6435   12.9394 C.ar    1  UNL1        0.0679
     12 CL         62.3314   83.6181   14.3657 Cl      1  UNL1       -0.0814
     13 C          62.4990   84.8334   12.0756 C.ar    1  UNL1        0.0093
     14 C          60.3624   87.1793   10.1899 C.3     1  UNL1        0.0750
     15 C          59.7283   87.5844    8.8923 C.3     1  UNL1        0.0474
     16 C          59.6978   88.8408    8.0734 C.3     1  UNL1        0.0713
     17 N          58.8316   88.1574    7.0572 N.3     1  UNL1       -0.2973
     18 C          58.8621   86.9010    7.8761 C.3     1  UNL1        0.0713
     19 H          59.2623   88.0653    6.1372 H       1  UNL1        0.1233
@<TRIPOS>BOND
     1     2     3    1
     2     3     4    1
     3     3     1    1
     4     1     5    1
     5     5     6    1
     6     6     7   ar
     7     7     8   ar
     8     8     9   ar
     9     9    10    1
    10     9    11   ar
    11    11    12    1
    12    11    13   ar
    13     1    14    1
    14    14    15    1
    15    15    16    1
    16    16    17    1
    17    17    18    1
    18    13     6   ar
    19    18    15    1
    20    17    19    1
@<TRIPOS>MOLECULE
*****
 19 20 0 0 0
SMALL
GASTEIGER

@<TRIPOS>ATOM
      1 N          65.3419   92.2151   12.5177 N.3     1  UNL1       -0.2702
      2 C          66.5469   94.0372   13.9242 C.3     1  UNL1        0.0173
      3 C          66.4450   92.6173   13.4511 C.3     1  UNL1        0.0579
      4 C          67.4463   91.5997   13.9115 C.3     1  UNL1        0.0173
      5 C          64.1875   91.4036   13.0264 C.3     1  UNL1        0.0991
      6 C          63.4694   90.4617   12.1060 C.ar    1  UNL1       -0.0053
      7 C          62.8167   90.9824   10.8599 C.ar    1  UNL1       -0.0020
      8 C          62.0987   90.0405    9.9396 C.ar    1  UNL1        0.0120
      9 C          62.0334   88.5777   10.2653 C.ar    1  UNL1        0.0682
     10 CL         61.3154   87.6357    9.3448 Cl      1  UNL1       -0.0814
     11 C          62.6861   88.0569   11.5114 C.ar    1  UNL1        0.0679
     12 CL         62.6208   86.5942   11.8371 Cl      1  UNL1       -0.0814
     13 C          63.4041   88.9989   12.4317 C.ar    1  UNL1        0.0093
     14 C          65.3931   92.6244   11.0755 C.3     1  UNL1        0.0750
     15 C          66.7085   92.9594   10.4372 C.3     1  UNL1        0.0474
     16 C          67.9603   92.1950   10.1232 C.3     1  UNL1        0.0713
     17 N          68.5689   93.4332    9.5346 N.3     1  UNL1       -0.2973
     18 C          67.3171   94.1977    9.8487 C.3     1  UNL1        0.0713
     19 H          68.7748   93.3628    8.5381 H       1  UNL1        0.1233
@<TRIPOS>BOND
     1     2     3    1
     2     3     4    1
     3     3     1    1
     4     1     5    1
     5     5     6    1
     6     6     7   ar
     7     7     8   ar
     8     8     9   ar
     9     9    10    1
    10     9    11   ar
    11    11    12    1
    12    11    13   ar
    13     1    14    1
    14    14    15    1
    15    15    16    1
    16    16    17    1
    17    17    18    1
    18    13     6   ar
    19    18    15    1
    20    17    19    1
@<TRIPOS>MOLECULE
*****
 19 20 0 0 0
SMALL
GASTEIGER

@<TRIPOS>ATOM
      1 N          63.0779   84.7600   14.2206 N.3     1  UNL1       -0.2702
      2 C          65.0115   86.3245   14.9712 C.3     1  UNL1        0.0173
      3 C          63.7280   85.6090   15.2725 C.3     1  UNL1        0.0579
      4 C          63.0947   85.7425   16.6256 C.3     1  UNL1        0.0173
      5 C          63.4579   84.9295   12.7795 C.3     1  UNL1        0.0991
      6 C          62.7380   85.9318   11.9268 C.ar    1  UNL1       -0.0053
      7 C          61.7353   85.4701   10.9112 C.ar    1  UNL1       -0.0020
      8 C          61.0154   86.4724   10.0586 C.ar    1  UNL1        0.0120
      9 C          61.2981   87.9365   10.2215 C.ar    1  UNL1        0.0682
     10 CL         60.5782   88.9388    9.3688 Cl      1  UNL1       -0.0814
     11 C          62.3008   88.3982   11.2371 C.ar    1  UNL1        0.0679
     12 CL         62.5835   89.8623   11.4001 Cl      1  UNL1       -0.0814
     13 C          63.0207   87.3959   12.0897 C.ar    1  UNL1        0.0093
     14 C          62.0477   83.7415   14.6098 C.3     1  UNL1        0.0750
     15 C          62.2208   82.3074   14.2058 C.3     1  UNL1        0.0474
     16 C          61.3114   81.1197   14.0943 C.3     1  UNL1        0.0713
     17 N          62.4656   80.2792   13.6344 N.3     1  UNL1       -0.2973
     18 C          63.3749   81.4669   13.7459 C.3     1  UNL1        0.0713
     19 H          62.3660   79.9186   12.6854 H       1  UNL1        0.1233
@<TRIPOS>BOND
     1     2     3    1
     2     3     4    1
     3     3     1    1
     4     1     5    1
     5     5     6    1
     6     6     7   ar
     7     7     8   ar
     8     8     9   ar
     9     9    10    1
    10     9    11   ar
    11    11    12    1
    12    11    13   ar
    13     1    14    1
    14    14    15    1
    15    15    16    1
    16    16    17    1
    17    17    18    1
    18    13     6   ar
    19    18    15    1
    20    17    19    1
