@<TRIPOS>MOLECULE
*****
 25 27 0 0 0
SMALL
GASTEIGER

@<TRIPOS>ATOM
      1 C          62.5181   88.3843   10.9479 C.ar    1  UNL1        0.0533
      2 C          62.5299   89.8837   10.9073 C.ar    1  UNL1        0.0824
      3 C          62.0228   90.7393    9.7846 C.3     1  UNL1        0.0540
      4 N          63.1378   90.3771   12.1868 N.ar    1  UNL1       -0.1681
      5 N          63.5018   89.1827   13.0180 N.ar    1  UNL1       -0.2085
      6 C          64.1324   89.0576   14.3732 C.ar    1  UNL1        0.1569
      7 C          64.3801   87.7007   14.9627 C.ar    1  UNL1        0.0379
      8 C          63.9971   86.4690   14.1970 C.ar    1  UNL1        0.0625
      9 C          64.2448   85.1121   14.7866 C.3     1  UNL1        0.0522
     10 N          63.3664   86.5942   12.8418 N.ar    1  UNL1       -0.2308
     11 C          63.1188   87.9511   12.2523 C.ar    1  UNL1        0.1645
     12 C          60.9551   85.6633    7.7224 C.ar    1  UNL1        0.1682
     13 C          62.4035   85.6132    8.1092 C.ar    1  UNL1        0.0394
     14 C          62.9245   86.5202    9.1844 C.ar    1  UNL1        0.0056
     15 C          61.9972   87.4773    9.8727 C.ar    1  UNL1        0.0341
     16 C          60.5487   87.5273    9.4859 C.ar    1  UNL1        0.1705
     17 F          59.6212   88.4844   10.1743 F       1  UNL1       -0.2017
     18 C          60.0277   86.6203    8.4108 C.ar    1  UNL1        0.2010
     19 F          58.5793   86.6705    8.0241 F       1  UNL1       -0.1986
     20 C          61.3873   84.0990    5.6936 C.3     1  UNL1        0.2526
     21 O          60.4342   84.7562    6.6473 O.3     1  UNL1       -0.4691
     22 C          64.5155   90.2893   15.1389 C.3     1  UNL1        0.4350
     23 F          64.8985   91.5209   15.9045 F       1  UNL1       -0.1644
     24 F          65.6360   90.5407   14.1739 F       1  UNL1       -0.1644
     25 F          63.3949   90.0378   16.1038 F       1  UNL1       -0.1644
@<TRIPOS>BOND
     1    20    21    1
     2    21    12    1
     3    12    13   ar
     4    13    14   ar
     5    14    15   ar
     6    15     1    1
     7     1     2   ar
     8     2     3    1
     9     2     4   ar
    10     4     5   ar
    11     5     6   ar
    12     6    22    1
    13    22    23    1
    14    22    24    1
    15    22    25    1
    16     6     7   ar
    17     7     8   ar
    18     8     9    1
    19     8    10   ar
    20    10    11   ar
    21    15    16   ar
    22    16    17    1
    23    16    18   ar
    24    18    19    1
    25    18    12   ar
    26    11     1   ar
    27    11     5   ar
@<TRIPOS>MOLECULE
*****
 25 27 0 0 0
SMALL
GASTEIGER

@<TRIPOS>ATOM
      1 C          62.9738   85.1632   12.2483 C.ar    1  UNL1        0.0533
      2 C          63.7055   85.9445   13.2991 C.ar    1  UNL1        0.0824
      3 C          64.4959   85.3678   14.4361 C.3     1  UNL1        0.0540
      4 N          63.5080   87.4037   13.0133 N.ar    1  UNL1       -0.1681
      5 N          62.6543   87.5242   11.7858 N.ar    1  UNL1       -0.2085
      6 C          62.1349   88.7160   11.0376 C.ar    1  UNL1        0.1569
      7 C          61.2853   88.5230    9.8166 C.ar    1  UNL1        0.0379
      8 C          60.9551   87.1383    9.3438 C.ar    1  UNL1        0.0625
      9 C          60.1055   86.9454    8.1227 C.3     1  UNL1        0.0522
     10 N          61.4745   85.9466   10.0920 N.ar    1  UNL1       -0.2308
     11 C          62.3241   86.1395   11.3131 C.ar    1  UNL1        0.1645
     12 C          62.7643   80.6777   11.9534 C.ar    1  UNL1        0.1682
     13 C          63.3393   81.4777   10.8223 C.ar    1  UNL1        0.0394
     14 C          63.4091   82.9728   10.9207 C.ar    1  UNL1        0.0056
     15 C          62.9040   83.6680   12.1500 C.ar    1  UNL1        0.0341
     16 C          62.3289   82.8680   13.2812 C.ar    1  UNL1        0.1705
     17 F          61.8237   83.5632   14.5106 F       1  UNL1       -0.2017
     18 C          62.2591   81.3729   13.1828 C.ar    1  UNL1        0.2010
     19 F          61.6841   80.5730   14.3140 F       1  UNL1       -0.1986
     20 C          62.7384   78.5164   10.5119 C.3     1  UNL1        0.2526
     21 O          62.6945   79.1826   11.8551 O.3     1  UNL1       -0.4691
     22 C          62.4651   90.1007   11.5104 C.3     1  UNL1        0.4350
     23 F          62.7953   91.4854   11.9832 F       1  UNL1       -0.1644
     24 F          61.5712   89.9079   12.6994 F       1  UNL1       -0.1644
     25 F          63.3590   90.2935   10.3214 F       1  UNL1       -0.1644
@<TRIPOS>BOND
     1    20    21    1
     2    21    12    1
     3    12    13   ar
     4    13    14   ar
     5    14    15   ar
     6    15     1    1
     7     1     2   ar
     8     2     3    1
     9     2     4   ar
    10     4     5   ar
    11     5     6   ar
    12     6    22    1
    13    22    23    1
    14    22    24    1
    15    22    25    1
    16     6     7   ar
    17     7     8   ar
    18     8     9    1
    19     8    10   ar
    20    10    11   ar
    21    15    16   ar
    22    16    17    1
    23    16    18   ar
    24    18    19    1
    25    18    12   ar
    26    11     1   ar
    27    11     5   ar
@<TRIPOS>MOLECULE
*****
 25 27 0 0 0
SMALL
GASTEIGER

@<TRIPOS>ATOM
      1 C          63.5816   90.4552   12.8393 C.ar    1  UNL1        0.0533
      2 C          63.6695   90.2636   14.3244 C.ar    1  UNL1        0.0824
      3 C          62.7990   89.3636   15.1504 C.3     1  UNL1        0.0540
      4 N          64.7807   91.1301   14.8385 N.ar    1  UNL1       -0.1681
      5 N          65.3796   91.8572   13.6712 N.ar    1  UNL1       -0.2085
      6 C          66.5040   92.8452   13.5737 C.ar    1  UNL1        0.1569
      7 C          66.8873   93.4161   12.2406 C.ar    1  UNL1        0.0379
      8 C          66.1462   92.9989   11.0050 C.ar    1  UNL1        0.0625
      9 C          66.5295   93.5698    9.6719 C.3     1  UNL1        0.0522
     10 N          65.0218   92.0109   11.1025 N.ar    1  UNL1       -0.2308
     11 C          64.6385   91.4401   12.4356 C.ar    1  UNL1        0.1645
     12 C          60.6602   88.4305   10.0795 C.ar    1  UNL1        0.1682
     13 C          60.6406   89.9230   10.2283 C.ar    1  UNL1        0.0394
     14 C          61.6144   90.5978   11.1483 C.ar    1  UNL1        0.0056
     15 C          62.6078   89.7803   11.9194 C.ar    1  UNL1        0.0341
     16 C          62.6274   88.2878   11.7705 C.ar    1  UNL1        0.1705
     17 F          63.6209   87.4702   12.5416 F       1  UNL1       -0.2017
     18 C          61.6536   87.6129   10.8506 C.ar    1  UNL1        0.2010
     19 F          61.6733   86.1205   10.7018 F       1  UNL1       -0.1986
     20 C          59.4546   88.3013    7.7817 C.3     1  UNL1        0.2526
     21 O          59.6864   87.7557    9.1596 O.3     1  UNL1       -0.4691
     22 C          67.2451   93.2624   14.8093 C.3     1  UNL1        0.4350
     23 F          67.9862   93.6795   16.0449 F       1  UNL1       -0.1644
     24 F          67.6578   91.8392   15.0423 F       1  UNL1       -0.1644
     25 F          66.8324   94.6855   14.5764 F       1  UNL1       -0.1644
@<TRIPOS>BOND
     1    20    21    1
     2    21    12    1
     3    12    13   ar
     4    13    14   ar
     5    14    15   ar
     6    15     1    1
     7     1     2   ar
     8     2     3    1
     9     2     4   ar
    10     4     5   ar
    11     5     6   ar
    12     6    22    1
    13    22    23    1
    14    22    24    1
    15    22    25    1
    16     6     7   ar
    17     7     8   ar
    18     8     9    1
    19     8    10   ar
    20    10    11   ar
    21    15    16   ar
    22    16    17    1
    23    16    18   ar
    24    18    19    1
    25    18    12   ar
    26    11     1   ar
    27    11     5   ar
@<TRIPOS>MOLECULE
*****
 25 27 0 0 0
SMALL
GASTEIGER

@<TRIPOS>ATOM
      1 C          62.9483   85.2016   12.3506 C.ar    1  UNL1        0.0533
      2 C          63.6845   86.0094   13.3780 C.ar    1  UNL1        0.0824
      3 C          64.4681   85.4622   14.5341 C.3     1  UNL1        0.0540
      4 N          63.4994   87.4605   13.0462 N.ar    1  UNL1       -0.1681
      5 N          62.6489   87.5495   11.8138 N.ar    1  UNL1       -0.2085
      6 C          62.1407   88.7214   11.0276 C.ar    1  UNL1        0.1569
      7 C          61.2918   88.4972    9.8115 C.ar    1  UNL1        0.0379
      8 C          60.9511   87.1011    9.3816 C.ar    1  UNL1        0.0625
      9 C          60.1022   86.8770    8.1653 C.3     1  UNL1        0.0522
     10 N          61.4594   85.9292   10.1678 N.ar    1  UNL1       -0.2308
     11 C          62.3083   86.1534   11.3839 C.ar    1  UNL1        0.1645
     12 C          62.7029   80.7109   12.1956 C.ar    1  UNL1        0.1682
     13 C          62.2399   81.4456   13.4186 C.ar    1  UNL1        0.0394
     14 C          62.3217   82.9425   13.4703 C.ar    1  UNL1        0.0056
     15 C          62.8665   83.7047   12.2990 C.ar    1  UNL1        0.0341
     16 C          63.3295   82.9700   11.0758 C.ar    1  UNL1        0.1705
     17 F          63.8743   83.7322    9.9044 F       1  UNL1       -0.2017
     18 C          63.2477   81.4731   11.0242 C.ar    1  UNL1        0.2010
     19 F          63.7107   80.7385    9.8011 F       1  UNL1       -0.1986
     20 C          62.6430   78.5069   10.8213 C.3     1  UNL1        0.2526
     21 O          62.6210   79.2140   12.1440 O.3     1  UNL1       -0.4691
     22 C          62.4813   90.1175   11.4575 C.3     1  UNL1        0.4350
     23 F          62.8219   91.5137   11.8874 F       1  UNL1       -0.1644
     24 F          63.3578   90.2753   10.2506 F       1  UNL1       -0.1644
     25 F          61.6048   89.9597   12.6645 F       1  UNL1       -0.1644
@<TRIPOS>BOND
     1    20    21    1
     2    21    12    1
     3    12    13   ar
     4    13    14   ar
     5    14    15   ar
     6    15     1    1
     7     1     2   ar
     8     2     3    1
     9     2     4   ar
    10     4     5   ar
    11     5     6   ar
    12     6    22    1
    13    22    23    1
    14    22    24    1
    15    22    25    1
    16     6     7   ar
    17     7     8   ar
    18     8     9    1
    19     8    10   ar
    20    10    11   ar
    21    15    16   ar
    22    16    17    1
    23    16    18   ar
    24    18    19    1
    25    18    12   ar
    26    11     1   ar
    27    11     5   ar
@<TRIPOS>MOLECULE
*****
 25 27 0 0 0
SMALL
GASTEIGER

@<TRIPOS>ATOM
      1 C          62.5222   85.8685   11.2075 C.ar    1  UNL1        0.0533
      2 C          62.7624   87.2032   11.8485 C.ar    1  UNL1        0.0824
      3 C          62.6763   88.5368   11.1672 C.3     1  UNL1        0.0540
      4 N          63.1039   86.9701   13.2904 N.ar    1  UNL1       -0.1681
      5 N          63.0747   85.4914   13.5405 N.ar    1  UNL1       -0.2085
      6 C          63.3290   84.6769   14.7741 C.ar    1  UNL1        0.1569
      7 C          63.2238   83.1816   14.7204 C.ar    1  UNL1        0.0379
      8 C          62.8643   82.5008   13.4331 C.ar    1  UNL1        0.0625
      9 C          62.7591   81.0054   13.3794 C.3     1  UNL1        0.0522
     10 N          62.6100   83.3153   12.1995 N.ar    1  UNL1       -0.2308
     11 C          62.7152   84.8106   12.2532 C.ar    1  UNL1        0.1645
     12 C          61.4165   85.1623    6.9029 C.ar    1  UNL1        0.1682
     13 C          62.7267   84.6599    7.4329 C.ar    1  UNL1        0.0394
     14 C          63.0953   84.8953    8.8678 C.ar    1  UNL1        0.0056
     15 C          62.1537   85.6331    9.7726 C.ar    1  UNL1        0.0341
     16 C          60.8434   86.1356    9.2426 C.ar    1  UNL1        0.1705
     17 F          59.9017   86.8734   10.1475 F       1  UNL1       -0.2017
     18 C          60.4749   85.9001    7.8078 C.ar    1  UNL1        0.2010
     19 F          59.1646   86.4026    7.2779 F       1  UNL1       -0.1986
     20 C          61.9391   84.0980    4.5912 C.3     1  UNL1        0.2526
     21 O          61.0480   84.9268    5.4681 O.3     1  UNL1       -0.4691
     22 C          63.6885   85.3578   16.0615 C.3     1  UNL1        0.4350
     23 F          64.0480   86.0386   17.3488 F       1  UNL1       -0.1644
     24 F          65.0334   85.7112   15.4990 F       1  UNL1       -0.1644
     25 F          62.3436   85.0043   16.6240 F       1  UNL1       -0.1644
@<TRIPOS>BOND
     1    20    21    1
     2    21    12    1
     3    12    13   ar
     4    13    14   ar
     5    14    15   ar
     6    15     1    1
     7     1     2   ar
     8     2     3    1
     9     2     4   ar
    10     4     5   ar
    11     5     6   ar
    12     6    22    1
    13    22    23    1
    14    22    24    1
    15    22    25    1
    16     6     7   ar
    17     7     8   ar
    18     8     9    1
    19     8    10   ar
    20    10    11   ar
    21    15    16   ar
    22    16    17    1
    23    16    18   ar
    24    18    19    1
    25    18    12   ar
    26    11     1   ar
    27    11     5   ar
@<TRIPOS>MOLECULE
*****
 25 27 0 0 0
SMALL
GASTEIGER

@<TRIPOS>ATOM
      1 C          63.5280   86.0537   13.9641 C.ar    1  UNL1        0.0533
      2 C          63.3691   85.3697   15.2896 C.ar    1  UNL1        0.0824
      3 C          63.3936   86.0352   16.6337 C.3     1  UNL1        0.0540
      4 N          63.1815   83.9035   15.0350 N.ar    1  UNL1       -0.1681
      5 N          63.2244   83.6813   13.5521 N.ar    1  UNL1       -0.2085
      6 C          63.0962   82.4405   12.7190 C.ar    1  UNL1        0.1569
      7 C          63.1821   82.5288   11.2241 C.ar    1  UNL1        0.0379
      8 C          63.3962   83.8577   10.5623 C.ar    1  UNL1        0.0625
      9 C          63.4821   83.9459    9.0673 C.3     1  UNL1        0.0522
     10 N          63.5244   85.0985   11.3954 N.ar    1  UNL1       -0.2308
     11 C          63.4385   85.0102   12.8903 C.ar    1  UNL1        0.1645
     12 C          64.1614   90.4624   13.3218 C.ar    1  UNL1        0.1682
     13 C          64.7672   89.7836   14.5143 C.ar    1  UNL1        0.0394
     14 C          64.5561   88.3140   14.7284 C.ar    1  UNL1        0.0056
     15 C          63.7391   87.5233   13.7500 C.ar    1  UNL1        0.0341
     16 C          63.1333   88.2022   12.5574 C.ar    1  UNL1        0.1705
     17 F          62.3163   87.4115   11.5790 F       1  UNL1       -0.2017
     18 C          63.3445   89.6717   12.3433 C.ar    1  UNL1        0.2010
     19 F          62.7386   90.3505   11.1508 F       1  UNL1       -0.1986
     20 C          65.7641   92.4888   13.0473 C.3     1  UNL1        0.2526
     21 O          64.3726   91.9320   13.1077 O.3     1  UNL1       -0.4691
     22 C          62.8821   81.1116   13.3808 C.3     1  UNL1        0.4350
     23 F          62.6680   79.7826   14.0427 F       1  UNL1       -0.1644
     24 F          61.3975   81.3008   13.2805 F       1  UNL1       -0.1644
     25 F          64.3668   80.9223   13.4811 F       1  UNL1       -0.1644
@<TRIPOS>BOND
     1    20    21    1
     2    21    12    1
     3    12    13   ar
     4    13    14   ar
     5    14    15   ar
     6    15     1    1
     7     1     2   ar
     8     2     3    1
     9     2     4   ar
    10     4     5   ar
    11     5     6   ar
    12     6    22    1
    13    22    23    1
    14    22    24    1
    15    22    25    1
    16     6     7   ar
    17     7     8   ar
    18     8     9    1
    19     8    10   ar
    20    10    11   ar
    21    15    16   ar
    22    16    17    1
    23    16    18   ar
    24    18    19    1
    25    18    12   ar
    26    11     1   ar
    27    11     5   ar
@<TRIPOS>MOLECULE
*****
 25 27 0 0 0
SMALL
GASTEIGER

@<TRIPOS>ATOM
      1 C          63.8163   85.3907   13.2429 C.ar    1  UNL1        0.0533
      2 C          64.4751   85.4838   14.5873 C.ar    1  UNL1        0.0824
      3 C          65.0028   84.3333   15.3922 C.3     1  UNL1        0.0540
      4 N          64.5136   86.9295   14.9854 N.ar    1  UNL1       -0.1681
      5 N          63.8785   87.7298   13.8871 N.ar    1  UNL1       -0.2085
      6 C          63.6370   89.2017   13.7286 C.ar    1  UNL1        0.1569
      7 C          62.9646   89.7225   12.4931 C.ar    1  UNL1        0.0379
      8 C          62.5337   88.7715   11.4161 C.ar    1  UNL1        0.0625
      9 C          61.8612   89.2924   10.1806 C.3     1  UNL1        0.0522
     10 N          62.7752   87.2996   11.5747 N.ar    1  UNL1       -0.2308
     11 C          63.4476   86.7788   12.8102 C.ar    1  UNL1        0.1645
     12 C          63.0759   81.6105   10.9164 C.ar    1  UNL1        0.1682
     13 C          63.9454   82.6881   10.3395 C.ar    1  UNL1        0.0394
     14 C          64.1922   83.9482   11.1151 C.ar    1  UNL1        0.0056
     15 C          63.5696   84.1307   12.4674 C.ar    1  UNL1        0.0341
     16 C          62.7000   83.0530   13.0443 C.ar    1  UNL1        0.1705
     17 F          62.0773   83.2355   14.3966 F       1  UNL1       -0.2017
     18 C          62.4532   81.7930   12.2687 C.ar    1  UNL1        0.2010
     19 F          61.5837   80.7155   12.8456 F       1  UNL1       -0.1986
     20 C          62.8685   79.0220   10.8362 C.3     1  UNL1        0.2526
     21 O          62.8292   80.3505   10.1408 O.3     1  UNL1       -0.4691
     22 C          64.0680   90.1528   14.8055 C.3     1  UNL1        0.4350
     23 F          64.4989   91.1038   15.8825 F       1  UNL1       -0.1644
     24 F          62.8414   89.8108   15.5983 F       1  UNL1       -0.1644
     25 F          65.2945   90.4948   14.0127 F       1  UNL1       -0.1644
@<TRIPOS>BOND
     1    20    21    1
     2    21    12    1
     3    12    13   ar
     4    13    14   ar
     5    14    15   ar
     6    15     1    1
     7     1     2   ar
     8     2     3    1
     9     2     4   ar
    10     4     5   ar
    11     5     6   ar
    12     6    22    1
    13    22    23    1
    14    22    24    1
    15    22    25    1
    16     6     7   ar
    17     7     8   ar
    18     8     9    1
    19     8    10   ar
    20    10    11   ar
    21    15    16   ar
    22    16    17    1
    23    16    18   ar
    24    18    19    1
    25    18    12   ar
    26    11     1   ar
    27    11     5   ar
@<TRIPOS>MOLECULE
*****
 25 27 0 0 0
SMALL
GASTEIGER

@<TRIPOS>ATOM
      1 C          62.7402   85.5747   11.7520 C.ar    1  UNL1        0.0533
      2 C          62.8056   84.5090   10.6985 C.ar    1  UNL1        0.0824
      3 C          62.8943   84.7365    9.2185 C.3     1  UNL1        0.0540
      4 N          62.7666   83.1758   11.3849 N.ar    1  UNL1       -0.1681
      5 N          62.6772   83.4175   12.8626 N.ar    1  UNL1       -0.2085
      6 C          62.6085   82.4792   14.0308 C.ar    1  UNL1        0.1569
      7 C          62.5236   83.0235   15.4259 C.ar    1  UNL1        0.0379
      8 C          62.5072   84.5061   15.6528 C.ar    1  UNL1        0.0625
      9 C          62.4222   85.0504   17.0481 C.3     1  UNL1        0.0522
     10 N          62.5759   85.4445   14.4846 N.ar    1  UNL1       -0.2308
     11 C          62.6609   84.9002   13.0895 C.ar    1  UNL1        0.1645
     12 C          62.7759   90.0159   11.0276 C.ar    1  UNL1        0.1682
     13 C          62.0864   89.1032   10.0573 C.ar    1  UNL1        0.0394
     14 C          62.0745   87.6228   10.2988 C.ar    1  UNL1        0.0056
     15 C          62.7521   87.0551   11.5106 C.ar    1  UNL1        0.0341
     16 C          63.4417   87.9678   12.4809 C.ar    1  UNL1        0.1705
     17 F          64.1193   87.4001   13.6928 F       1  UNL1       -0.2017
     18 C          63.4535   89.4482   12.2395 C.ar    1  UNL1        0.2010
     19 F          64.1431   90.3608   13.2098 F       1  UNL1       -0.1986
     20 C          64.0812   92.1986   10.4967 C.3     1  UNL1        0.2526
     21 O          62.7878   91.4963   10.7862 O.3     1  UNL1       -0.4691
     22 C          62.6249   80.9966   13.8038 C.3     1  UNL1        0.4350
     23 F          62.6412   79.5139   13.5769 F       1  UNL1       -0.1644
     24 F          61.1538   80.9364   14.0907 F       1  UNL1       -0.1644
     25 F          64.0960   81.0567   13.5170 F       1  UNL1       -0.1644
@<TRIPOS>BOND
     1    20    21    1
     2    21    12    1
     3    12    13   ar
     4    13    14   ar
     5    14    15   ar
     6    15     1    1
     7     1     2   ar
     8     2     3    1
     9     2     4   ar
    10     4     5   ar
    11     5     6   ar
    12     6    22    1
    13    22    23    1
    14    22    24    1
    15    22    25    1
    16     6     7   ar
    17     7     8   ar
    18     8     9    1
    19     8    10   ar
    20    10    11   ar
    21    15    16   ar
    22    16    17    1
    23    16    18   ar
    24    18    19    1
    25    18    12   ar
    26    11     1   ar
    27    11     5   ar
@<TRIPOS>MOLECULE
*****
 25 27 0 0 0
SMALL
GASTEIGER

@<TRIPOS>ATOM
      1 C          62.6376   86.2450   11.5992 C.ar    1  UNL1        0.0533
      2 C          62.1150   86.5382   10.2241 C.ar    1  UNL1        0.0824
      3 C          61.5642   85.5324    9.2572 C.3     1  UNL1        0.0540
      4 N          62.2400   88.0139    9.9857 N.ar    1  UNL1       -0.1681
      5 N          62.8398   88.6327   11.2134 N.ar    1  UNL1       -0.2085
      6 C          63.1940   90.0503   11.5521 C.ar    1  UNL1        0.1569
      7 C          63.7938   90.3748   12.8881 C.ar    1  UNL1        0.0379
      8 C          64.0396   89.2816   13.8853 C.ar    1  UNL1        0.0625
      9 C          64.6395   89.6061   15.2213 C.3     1  UNL1        0.0522
     10 N          63.6854   87.8639   13.5466 N.ar    1  UNL1       -0.2308
     11 C          63.0855   87.5395   12.2106 C.ar    1  UNL1        0.1645
     12 C          62.8281   82.1934   13.5481 C.ar    1  UNL1        0.1682
     13 C          62.2242   83.3522   14.2845 C.ar    1  UNL1        0.0394
     14 C          62.1607   84.7028   13.6348 C.ar    1  UNL1        0.0056
     15 C          62.7011   84.8945   12.2489 C.ar    1  UNL1        0.0341
     16 C          63.3051   83.7356   11.5124 C.ar    1  UNL1        0.1705
     17 F          63.8456   83.9273   10.1264 F       1  UNL1       -0.2017
     18 C          63.3686   82.3851   12.1621 C.ar    1  UNL1        0.2010
     19 F          63.9726   81.2263   11.4256 F       1  UNL1       -0.1986
     20 C          62.1103   79.6977   13.6252 C.3     1  UNL1        0.2526
     21 O          62.8917   80.8429   14.1978 O.3     1  UNL1       -0.4691
     22 C          62.9482   91.1436   10.5549 C.3     1  UNL1        0.4350
     23 F          62.7025   92.2368    9.5576 F       1  UNL1       -0.1644
     24 F          64.4161   91.4513   10.5305 F       1  UNL1       -0.1644
     25 F          61.4803   90.8358   10.5792 F       1  UNL1       -0.1644
@<TRIPOS>BOND
     1    20    21    1
     2    21    12    1
     3    12    13   ar
     4    13    14   ar
     5    14    15   ar
     6    15     1    1
     7     1     2   ar
     8     2     3    1
     9     2     4   ar
    10     4     5   ar
    11     5     6   ar
    12     6    22    1
    13    22    23    1
    14    22    24    1
    15    22    25    1
    16     6     7   ar
    17     7     8   ar
    18     8     9    1
    19     8    10   ar
    20    10    11   ar
    21    15    16   ar
    22    16    17    1
    23    16    18   ar
    24    18    19    1
    25    18    12   ar
    26    11     1   ar
    27    11     5   ar
