@<TRIPOS>MOLECULE
*****
 17 18 0 0 0
SMALL
GASTEIGER

@<TRIPOS>ATOM
      1 C          66.0535   93.5607   12.0246 C.ar    1  UNL1        0.0304
      2 C          65.2316   92.3067   11.9833 C.ar    1  UNL1        0.0067
      3 C          65.1932   91.7318   13.3682 C.ar    1  UNL1        0.0040
      4 C          65.9915   92.6305   14.2655 C.ar    1  UNL1        0.0230
      5 S          66.5232   93.7609   13.4351 S.2     1  UNL1       -0.0899
      6 C          67.2855   93.9963    9.7790 C.ar    1  UNL1       -0.0187
      7 C          67.5851   94.8928    8.6144 C.ar    1  UNL1        0.0164
      8 C          66.9526   96.2504    8.5307 C.ar    1  UNL1        0.0986
      9 N          66.0204   96.7114    9.6116 N.ar    1  UNL1       -0.2423
     10 C          65.7207   95.8148   10.7762 C.ar    1  UNL1        0.0990
     11 C          66.3533   94.4573   10.8599 C.ar    1  UNL1        0.0212
     12 C          68.7941   92.1495    8.7478 C.3     1  UNL1        0.0050
     13 C          67.9180   92.6388    9.8627 C.3     1  UNL1        0.0265
     14 C          66.2182   92.4335   15.7351 C.3     1  UNL1        0.0987
     15 N          65.1473   92.8086   16.7161 N.3     1  UNL1       -0.3170
     16 H          65.0090   93.8191   16.6986 H       1  UNL1        0.1192
     17 H          65.4284   92.5201   17.6532 H       1  UNL1        0.1192
@<TRIPOS>BOND
     1    12    13    1
     2    13     6    1
     3     6     7   ar
     4     7     8   ar
     5     8     9   ar
     6     9    10   ar
     7    10    11   ar
     8    11     1    1
     9     1     2   ar
    10     2     3   ar
    11     3     4   ar
    12     4    14    1
    13    14    15    1
    14     4     5   ar
    15    11     6   ar
    16     5     1   ar
    17    15    16    1
    18    15    17    1
@<TRIPOS>MOLECULE
*****
 17 18 0 0 0
SMALL
GASTEIGER

@<TRIPOS>ATOM
      1 C          66.3222   93.2493   11.2816 C.ar    1  UNL1        0.0304
      2 C          67.2537   92.7703   10.2079 C.ar    1  UNL1        0.0067
      3 C          67.6432   93.9525    9.3708 C.ar    1  UNL1        0.0040
      4 C          66.9524   95.1622    9.9271 C.ar    1  UNL1        0.0230
      5 S          66.1360   94.7276   11.1080 S.2     1  UNL1       -0.0899
      6 C          64.4568   91.6024   12.0286 C.ar    1  UNL1       -0.0187
      7 C          63.8229   90.7525   13.0896 C.ar    1  UNL1        0.0164
      8 C          64.4203   90.6995   14.4645 C.ar    1  UNL1        0.0986
      9 N          65.6517   91.4964   14.7784 N.ar    1  UNL1       -0.2423
     10 C          66.2856   92.3463   13.7174 C.ar    1  UNL1        0.0990
     11 C          65.6882   92.3993   12.3425 C.ar    1  UNL1        0.0212
     12 C          62.7351   90.7321   10.2884 C.3     1  UNL1        0.0050
     13 C          63.8594   91.6555   10.6538 C.3     1  UNL1        0.0265
     14 C          67.0593   96.5609    9.3958 C.3     1  UNL1        0.0987
     15 N          67.9641   96.8556    8.2363 N.3     1  UNL1       -0.3170
     16 H          68.9336   96.7041    8.5146 H       1  UNL1        0.1192
     17 H          67.8410   97.8259    7.9471 H       1  UNL1        0.1192
@<TRIPOS>BOND
     1    12    13    1
     2    13     6    1
     3     6     7   ar
     4     7     8   ar
     5     8     9   ar
     6     9    10   ar
     7    10    11   ar
     8    11     1    1
     9     1     2   ar
    10     2     3   ar
    11     3     4   ar
    12     4    14    1
    13    14    15    1
    14     4     5   ar
    15    11     6   ar
    16     5     1   ar
    17    15    16    1
    18    15    17    1
@<TRIPOS>MOLECULE
*****
 17 18 0 0 0
SMALL
GASTEIGER

@<TRIPOS>ATOM
      1 C          61.6078   86.6312   10.3895 C.ar    1  UNL1        0.0304
      2 C          60.4254   86.7590    9.4754 C.ar    1  UNL1        0.0067
      3 C          59.9521   88.1815    9.5259 C.ar    1  UNL1        0.0040
      4 C          60.8421   88.9328   10.4713 C.ar    1  UNL1        0.0230
      5 S          61.8653   87.9746   11.0050 S.2     1  UNL1       -0.0899
      6 C          63.1739   84.7446    9.5303 C.ar    1  UNL1       -0.0187
      7 C          63.9607   83.4931    9.7844 C.ar    1  UNL1        0.0164
      8 C          63.9681   82.8765   11.1518 C.ar    1  UNL1        0.0986
      9 N          63.1887   83.5114   12.2651 N.ar    1  UNL1       -0.2423
     10 C          62.4020   84.7629   12.0110 C.ar    1  UNL1        0.0990
     11 C          62.3946   85.3795   10.6436 C.ar    1  UNL1        0.0212
     12 C          62.4054   84.7060    7.0489 C.3     1  UNL1        0.0050
     13 C          63.1666   85.3612    8.1630 C.3     1  UNL1        0.0265
     14 C          60.7286   90.3870   10.8214 C.3     1  UNL1        0.0987
     15 N          59.4474   90.9246   11.3865 N.3     1  UNL1       -0.3170
     16 H          58.7120   90.8606   10.6826 H       1  UNL1        0.1192
     17 H          59.5771   91.9000   11.6550 H       1  UNL1        0.1192
@<TRIPOS>BOND
     1    12    13    1
     2    13     6    1
     3     6     7   ar
     4     7     8   ar
     5     8     9   ar
     6     9    10   ar
     7    10    11   ar
     8    11     1    1
     9     1     2   ar
    10     2     3   ar
    11     3     4   ar
    12     4    14    1
    13    14    15    1
    14     4     5   ar
    15    11     6   ar
    16     5     1   ar
    17    15    16    1
    18    15    17    1
@<TRIPOS>MOLECULE
*****
 17 18 0 0 0
SMALL
GASTEIGER

@<TRIPOS>ATOM
      1 C          66.2861   93.0878   11.2878 C.ar    1  UNL1        0.0304
      2 C          67.2924   92.6483   10.2660 C.ar    1  UNL1        0.0067
      3 C          67.7574   93.8640    9.5205 C.ar    1  UNL1        0.0040
      4 C          67.0384   95.0550   10.0816 C.ar    1  UNL1        0.0230
      5 S          66.1291   94.5752   11.1738 S.2     1  UNL1       -0.0899
      6 C          66.1679   91.8966   13.5937 C.ar    1  UNL1       -0.0187
      7 C          65.4454   91.0053   14.5598 C.ar    1  UNL1        0.0164
      8 C          64.1185   90.4138   14.1863 C.ar    1  UNL1        0.0986
      9 N          63.5141   90.7137   12.8466 N.ar    1  UNL1       -0.2423
     10 C          64.2367   91.6050   11.8805 C.ar    1  UNL1        0.0990
     11 C          65.5636   92.1965   12.2540 C.ar    1  UNL1        0.0212
     12 C          67.7668   92.8821   15.3888 C.3     1  UNL1        0.0050
     13 C          67.4948   92.4880   13.9673 C.3     1  UNL1        0.0265
     14 C          67.2004   96.4761    9.6298 C.3     1  UNL1        0.0987
     15 N          67.6370   96.7714    8.2255 N.3     1  UNL1       -0.3170
     16 H          68.5918   96.4392    8.0893 H       1  UNL1        0.1192
     17 H          67.6008   97.7777    8.0626 H       1  UNL1        0.1192
@<TRIPOS>BOND
     1    12    13    1
     2    13     6    1
     3     6     7   ar
     4     7     8   ar
     5     8     9   ar
     6     9    10   ar
     7    10    11   ar
     8    11     1    1
     9     1     2   ar
    10     2     3   ar
    11     3     4   ar
    12     4    14    1
    13    14    15    1
    14     4     5   ar
    15    11     6   ar
    16     5     1   ar
    17    15    16    1
    18    15    17    1
@<TRIPOS>MOLECULE
*****
 17 18 0 0 0
SMALL
GASTEIGER

@<TRIPOS>ATOM
      1 C          62.2638   85.7520   10.7183 C.ar    1  UNL1        0.0304
      2 C          62.7599   85.4054    9.3459 C.ar    1  UNL1        0.0067
      3 C          61.7682   85.9273    8.3489 C.ar    1  UNL1        0.0040
      4 C          60.6590   86.5966    9.1052 C.ar    1  UNL1        0.0230
      5 S          60.9653   86.4882   10.5696 S.2     1  UNL1       -0.0899
      6 C          63.2458   83.9922   12.3580 C.ar    1  UNL1       -0.0187
      7 C          63.9282   83.6609   13.6520 C.ar    1  UNL1        0.0164
      8 C          64.3110   84.7581   14.6004 C.ar    1  UNL1        0.0986
      9 N          64.0115   86.1867   14.2548 N.ar    1  UNL1       -0.2423
     10 C          63.3291   86.5180   12.9608 C.ar    1  UNL1        0.0990
     11 C          62.9462   85.4207   12.0124 C.ar    1  UNL1        0.0212
     12 C          63.9120   82.2312   10.5678 C.3     1  UNL1        0.0050
     13 C          62.8629   82.8949   11.4096 C.3     1  UNL1        0.0265
     14 C          59.4550   87.2580    8.5029 C.3     1  UNL1        0.0987
     15 N          58.5740   86.4951    7.5585 N.3     1  UNL1       -0.3170
     16 H          59.0937   86.2794    6.7078 H       1  UNL1        0.1192
     17 H          57.7574   87.0596    7.3241 H       1  UNL1        0.1192
@<TRIPOS>BOND
     1    12    13    1
     2    13     6    1
     3     6     7   ar
     4     7     8   ar
     5     8     9   ar
     6     9    10   ar
     7    10    11   ar
     8    11     1    1
     9     1     2   ar
    10     2     3   ar
    11     3     4   ar
    12     4    14    1
    13    14    15    1
    14     4     5   ar
    15    11     6   ar
    16     5     1   ar
    17    15    16    1
    18    15    17    1
@<TRIPOS>MOLECULE
*****
 17 18 0 0 0
SMALL
GASTEIGER

@<TRIPOS>ATOM
      1 C          62.0175   85.6926    9.6585 C.ar    1  UNL1        0.0304
      2 C          63.0982   84.9148    8.9677 C.ar    1  UNL1        0.0067
      3 C          63.7712   84.0478    9.9902 C.ar    1  UNL1        0.0040
      4 C          63.1064   84.2897   11.3129 C.ar    1  UNL1        0.0230
      5 S          62.0226   85.3062   11.1079 S.2     1  UNL1       -0.0899
      6 C          61.2372   88.1461    9.3101 C.ar    1  UNL1       -0.0187
      7 C          60.3136   89.1363    8.6648 C.ar    1  UNL1        0.0164
      8 C          59.2466   88.6632    7.7227 C.ar    1  UNL1        0.0986
      9 N          59.1032   87.1999    7.4258 N.ar    1  UNL1       -0.2423
     10 C          60.0268   86.2097    8.0711 C.ar    1  UNL1        0.0990
     11 C          61.0938   86.6828    9.0132 C.ar    1  UNL1        0.0212
     12 C          62.6158   90.0826   10.3586 C.3     1  UNL1        0.0050
     13 C          62.3042   88.6192   10.2522 C.3     1  UNL1        0.0265
     14 C          63.4629   83.6308   12.6124 C.3     1  UNL1        0.0987
     15 N          64.7745   82.9175   12.7566 N.3     1  UNL1       -0.3170
     16 H          64.7877   82.1029   12.1429 H       1  UNL1        0.1192
     17 H          64.8933   82.6164   13.7239 H       1  UNL1        0.1192
@<TRIPOS>BOND
     1    12    13    1
     2    13     6    1
     3     6     7   ar
     4     7     8   ar
     5     8     9   ar
     6     9    10   ar
     7    10    11   ar
     8    11     1    1
     9     1     2   ar
    10     2     3   ar
    11     3     4   ar
    12     4    14    1
    13    14    15    1
    14     4     5   ar
    15    11     6   ar
    16     5     1   ar
    17    15    16    1
    18    15    17    1
@<TRIPOS>MOLECULE
*****
 17 18 0 0 0
SMALL
GASTEIGER

@<TRIPOS>ATOM
      1 C          63.6376   83.6815   14.2156 C.ar    1  UNL1        0.0304
      2 C          64.8457   84.5654   14.1204 C.ar    1  UNL1        0.0067
      3 C          64.7357   85.6169   15.1844 C.ar    1  UNL1        0.0040
      4 C          63.4595   85.3829   15.9372 C.ar    1  UNL1        0.0230
      5 S          62.7809   84.1868   15.3384 S.2     1  UNL1       -0.0899
      6 C          63.2828   82.6640   11.8514 C.ar    1  UNL1       -0.0187
      7 C          62.9838   81.4823   10.9773 C.ar    1  UNL1        0.0164
      8 C          62.7407   80.1363   11.5931 C.ar    1  UNL1        0.0986
      9 N          62.7965   79.9720   13.0830 N.ar    1  UNL1       -0.2423
     10 C          63.0955   81.1538   13.9571 C.ar    1  UNL1        0.0990
     11 C          63.3386   82.4998   13.3413 C.ar    1  UNL1        0.0212
     12 C          62.3904   84.9764   11.0727 C.3     1  UNL1        0.0050
     13 C          63.5259   84.0101   11.2357 C.3     1  UNL1        0.0265
     14 C          62.9512   86.2014   17.0869 C.3     1  UNL1        0.0987
     15 N          61.4760   86.4011   17.2710 N.3     1  UNL1       -0.3170
     16 H          61.1078   86.9504   16.4945 H       1  UNL1        0.1192
     17 H          61.3066   86.8949   18.1473 H       1  UNL1        0.1192
@<TRIPOS>BOND
     1    12    13    1
     2    13     6    1
     3     6     7   ar
     4     7     8   ar
     5     8     9   ar
     6     9    10   ar
     7    10    11   ar
     8    11     1    1
     9     1     2   ar
    10     2     3   ar
    11     3     4   ar
    12     4    14    1
    13    14    15    1
    14     4     5   ar
    15    11     6   ar
    16     5     1   ar
    17    15    16    1
    18    15    17    1
@<TRIPOS>MOLECULE
*****
 17 18 0 0 0
SMALL
GASTEIGER

@<TRIPOS>ATOM
      1 C          62.8977   84.2760   11.0613 C.ar    1  UNL1        0.0304
      2 C          63.8992   83.5152   10.2439 C.ar    1  UNL1        0.0067
      3 C          64.3679   82.3450   11.0569 C.ar    1  UNL1        0.0040
      4 C          63.6561   82.3826   12.3767 C.ar    1  UNL1        0.0230
      5 S          62.7474   83.5760   12.3794 S.2     1  UNL1       -0.0899
      6 C          62.1982   85.9456    9.1976 C.ar    1  UNL1       -0.0187
      7 C          61.4741   87.1883    8.7718 C.ar    1  UNL1        0.0164
      8 C          60.7253   88.0040    9.7836 C.ar    1  UNL1        0.0986
      9 N          60.7006   87.5772   11.2213 N.ar    1  UNL1       -0.2423
     10 C          61.4247   86.3345   11.6472 C.ar    1  UNL1        0.0990
     11 C          62.1735   85.5188   10.6354 C.ar    1  UNL1        0.0212
     12 C          62.3158   84.8127    6.8626 C.3     1  UNL1        0.0050
     13 C          62.9470   85.1299    8.1858 C.3     1  UNL1        0.0265
     14 C          63.8235   81.3993   13.4971 C.3     1  UNL1        0.0987
     15 N          62.7495   81.2540   14.5341 N.3     1  UNL1       -0.3170
     16 H          62.6787   82.1169   15.0734 H       1  UNL1        0.1192
     17 H          62.9817   80.4812   15.1581 H       1  UNL1        0.1192
@<TRIPOS>BOND
     1    12    13    1
     2    13     6    1
     3     6     7   ar
     4     7     8   ar
     5     8     9   ar
     6     9    10   ar
     7    10    11   ar
     8    11     1    1
     9     1     2   ar
    10     2     3   ar
    11     3     4   ar
    12     4    14    1
    13    14    15    1
    14     4     5   ar
    15    11     6   ar
    16     5     1   ar
    17    15    16    1
    18    15    17    1
@<TRIPOS>MOLECULE
*****
 17 18 0 0 0
SMALL
GASTEIGER

@<TRIPOS>ATOM
      1 C          66.6883   92.3654   12.5399 C.ar    1  UNL1        0.0304
      2 C          67.5565   92.2065   13.7527 C.ar    1  UNL1        0.0067
      3 C          66.7096   91.6521   14.8597 C.ar    1  UNL1        0.0040
      4 C          65.3179   91.4683   14.3310 C.ar    1  UNL1        0.0230
      5 S          65.3048   91.9092   12.8973 S.2     1  UNL1       -0.0899
      6 C          66.8139   94.3027   10.8132 C.ar    1  UNL1       -0.0187
      7 C          67.2522   94.8259    9.4775 C.ar    1  UNL1        0.0164
      8 C          68.0033   93.9351    8.5328 C.ar    1  UNL1        0.0986
      9 N          68.3161   92.5212    8.9238 N.ar    1  UNL1       -0.2423
     10 C          67.8777   91.9980   10.2595 C.ar    1  UNL1        0.0990
     11 C          67.1266   92.8887   11.2042 C.ar    1  UNL1        0.0212
     12 C          66.0265   96.6745   11.5235 C.3     1  UNL1        0.0050
     13 C          66.0628   95.1934   11.7579 C.3     1  UNL1        0.0265
     14 C          64.1453   90.9370   15.1008 C.3     1  UNL1        0.0987
     15 N          63.6549   91.6647   16.3173 N.3     1  UNL1       -0.3170
     16 H          64.3680   91.6283   17.0458 H       1  UNL1        0.1192
     17 H          62.8000   91.2232   16.6560 H       1  UNL1        0.1192
@<TRIPOS>BOND
     1    12    13    1
     2    13     6    1
     3     6     7   ar
     4     7     8   ar
     5     8     9   ar
     6     9    10   ar
     7    10    11   ar
     8    11     1    1
     9     1     2   ar
    10     2     3   ar
    11     3     4   ar
    12     4    14    1
    13    14    15    1
    14     4     5   ar
    15    11     6   ar
    16     5     1   ar
    17    15    16    1
    18    15    17    1
