@<TRIPOS>MOLECULE
*****
 71 79 0 0 0
SMALL
GASTEIGER

@<TRIPOS>ATOM
      1 C          58.5027   96.1110   -1.2244 C.3     1  UNL1        0.1217
      2 N          63.6386   95.3042   -5.1893 N.3     1  UNL1       -0.1862
      3 C          62.8560   94.9089   -6.4064 C.3     1  UNL1        0.1775
      4 C          61.3593   94.8330   -6.3436 C.2     1  UNL1        0.2452
      5 O          60.5766   94.4377   -7.5607 O.2     1  UNL1       -0.2732
      6 N          60.6451   95.1525   -5.0638 N.am    1  UNL1       -0.2541
      7 C          59.1483   95.0767   -5.0011 C.3     1  UNL1        0.1577
      8 C          58.4342   95.3962   -3.7213 C.2     1  UNL1        0.2445
      9 O          56.9374   95.3203   -3.6585 O.2     1  UNL1       -0.2731
     10 N          59.2168   95.7915   -2.5042 N.am    1  UNL1       -0.2705
     11 C          60.7136   95.8673   -2.5669 C.3     1  UNL1        0.1359
     12 C          61.4277   95.5478   -3.8468 C.3     1  UNL1        0.1908
     13 N          62.9245   95.6236   -3.9096 N.am    1  UNL1       -0.1863
     14 C          63.7071   96.0189   -2.6924 C.2     1  UNL1        0.3191
     15 O          62.9930   96.3384   -1.4127 O.2     1  UNL1       -0.2512
     16 N          65.2039   96.0948   -2.7552 N.am    1  UNL1       -0.2836
     17 H          65.6726   95.8851   -3.5952 H       1  UNL1        0.1513
     18 C          65.1354   95.3800   -5.2521 C.3     1  UNL1        0.1188
     19 C          65.8390   93.2103   -6.4960 C.2     1  UNL1       -0.0034
     20 C          65.8744   94.7045   -6.3690 C.2     1  UNL1       -0.0071
     21 C          58.3657   94.6814   -6.2181 C.3     1  UNL1        0.0556
     22 C          57.4260   93.5137   -6.1589 C.ar    1  UNL1       -0.0198
     23 C          56.4214   93.3033   -7.2527 C.ar    1  UNL1       -0.0011
     24 C          55.4817   92.1357   -7.1936 C.ar    1  UNL1        0.0363
     25 C          55.5466   91.1784   -6.0406 C.ar    1  UNL1        0.1337
     26 O          54.6069   90.0107   -5.9815 O.3     1  UNL1       -0.5055
     27 C          56.5512   91.3888   -4.9467 C.ar    1  UNL1        0.0363
     28 C          57.4909   92.5564   -5.0059 C.ar    1  UNL1       -0.0011
     29 H          53.9793   89.8793   -6.6647 H       1  UNL1        0.2922
     30 C          65.9865   96.4900   -1.5382 C.3     1  UNL1        0.1177
     31 C          65.6021   95.9519   -0.1918 C.ar    1  UNL1       -0.0025
     32 C          65.2172   94.5099   -0.0425 C.ar    1  UNL1       -0.0026
     33 C          64.8328   93.9717    1.3038 C.ar    1  UNL1       -0.0003
     34 C          64.8334   94.8756    2.5009 C.ar    1  UNL1       -0.0000
     35 C          65.2184   96.3177    2.3516 C.ar    1  UNL1       -0.0003
     36 C          65.6028   96.8558    1.0053 C.ar    1  UNL1       -0.0026
     37 C          59.1462   95.7938    0.0930 C.ar    1  UNL1        0.0135
     38 C          59.9049   96.8559    0.8320 C.ar    1  UNL1       -0.0012
     39 C          60.5484   96.5388    2.1493 C.ar    1  UNL1       -0.0002
     40 C          60.4332   95.1596    2.7275 C.ar    1  UNL1        0.0016
     41 C          59.6745   94.0975    1.9885 C.ar    1  UNL1        0.0214
     42 C          59.3935   92.6589    2.3073 C.ar    1  UNL1        0.0719
     43 C          58.5763   92.0870    1.1870 C.ar    1  UNL1        0.0805
     44 N          58.3523   93.1720    0.1759 N.ar    1  UNL1       -0.3241
     45 C          57.5843   93.0380   -1.1056 C.3     1  UNL1        0.1305
     46 C          59.0310   94.4146    0.6712 C.ar    1  UNL1        0.0577
     47 C          59.8496   91.9218    3.5315 C.2     1  UNL1        0.2473
     48 O          61.3078   91.8773    3.8804 O.2     1  UNL1       -0.2701
     49 N          58.8476   91.2291    4.4067 N.am    1  UNL1       -0.3023
     50 H          57.8905   91.2583    4.1777 H       1  UNL1        0.1497
     51 C          59.3036   90.4919    5.6309 C.3     1  UNL1        0.0753
     52 C          60.2236   91.1599    6.6093 C.3     1  UNL1        0.0411
     53 C          60.6797   90.4228    7.8335 C.3     1  UNL1        0.0954
     54 N          60.2158   89.0177    8.0793 N.am    1  UNL1       -0.2760
     55 C          60.6718   88.2806    9.3034 C.2     1  UNL1        0.2490
     56 O          60.2078   86.8755    9.5492 O.2     1  UNL1       -0.2699
     57 C          59.2957   88.3497    7.1008 C.3     1  UNL1        0.0954
     58 C          58.8396   89.0868    5.8767 C.3     1  UNL1        0.0411
     59 C          61.5919   88.9485   10.2819 C.ar    1  UNL1        0.0537
     60 C          61.8335   90.4264   10.1955 C.ar    1  UNL1        0.0058
     61 C          62.7535   91.0944   11.1739 C.ar    1  UNL1        0.0147
     62 C          63.4319   90.2846   12.2387 C.ar    1  UNL1        0.0479
     63 C          63.1903   88.8067   12.3251 C.ar    1  UNL1        0.0147
     64 C          62.2703   88.1387   11.3467 C.ar    1  UNL1        0.0058
     65 N          64.3520   90.9525   13.2172 N.pl3   1  UNL1       -0.3046
     66 C          65.4877   91.7979   12.7219 C.3     1  UNL1        0.1081
     67 C          66.4078   92.4659   13.7003 C.3     1  UNL1        0.0938
     68 N          66.1921   92.2884   15.1740 N.3     1  UNL1       -0.2686
     69 C          67.1122   92.9564   16.1524 C.3     1  UNL1        0.0897
     70 C          65.0563   91.4431   15.6694 C.3     1  UNL1        0.0938
     71 C          64.1363   90.7751   14.6910 C.3     1  UNL1        0.1081
@<TRIPOS>BOND
     1    19    20    2
     2    20    18    1
     3    18     2    1
     4     2     3    1
     5     3     4    1
     6     4     5    2
     7     4     6   am
     8     6     7    1
     9     7    21    1
    10    21    22    1
    11    22    23   ar
    12    23    24   ar
    13    24    25   ar
    14    25    26    1
    15    25    27   ar
    16    27    28   ar
    17     7     8    1
    18     8     9    2
    19     8    10   am
    20    10     1    1
    21     1    37    1
    22    37    38   ar
    23    38    39   ar
    24    39    40   ar
    25    40    41   ar
    26    41    42   ar
    27    42    47    1
    28    47    48    2
    29    47    49   am
    30    49    51    1
    31    51    52    1
    32    52    53    1
    33    53    54    1
    34    54    55   am
    35    55    56    2
    36    55    59    1
    37    59    60   ar
    38    60    61   ar
    39    61    62   ar
    40    62    65    1
    41    65    66    1
    42    66    67    1
    43    67    68    1
    44    68    69    1
    45    68    70    1
    46    70    71    1
    47    62    63   ar
    48    63    64   ar
    49    54    57    1
    50    57    58    1
    51    42    43   ar
    52    43    44   ar
    53    44    45    1
    54    44    46   ar
    55    10    11    1
    56    12    11    1
    57    12    13    1
    58    13    14   am
    59    14    15    2
    60    14    16   am
    61    16    30    1
    62    30    31    1
    63    31    32   ar
    64    32    33   ar
    65    33    34   ar
    66    34    35   ar
    67    35    36   ar
    68    13     2    1
    69    36    31   ar
    70    12     6    1
    71    28    22   ar
    72    46    37   ar
    73    46    41   ar
    74    58    51    1
    75    64    59   ar
    76    71    65    1
    77    26    29    1
    78    49    50    1
    79    16    17    1
