@<TRIPOS>MOLECULE
*****
 43 45 0 0 0
SMALL
GASTEIGER

@<TRIPOS>ATOM
      1 C          63.4327   89.1137   12.6064 C.ar    1  UNL1        0.0539
      2 S          64.5898   90.0267   12.8846 S.2     1  UNL1       -0.0619
      3 C          64.2640   91.3751   12.3140 C.ar    1  UNL1        0.1641
      4 N          62.9055   91.2955   11.6831 N.ar    1  UNL1       -0.2291
      5 C          62.3917   89.8979   11.8638 C.ar    1  UNL1        0.1414
      6 C          61.0691   89.3761   11.3858 C.2     1  UNL1        0.2673
      7 O          59.7972   89.8817   11.9997 O.2     1  UNL1       -0.2682
      8 N          61.0183   88.3488   10.2941 N.am    1  UNL1       -0.2747
      9 C          59.6957   87.8270    9.8161 C.3     1  UNL1        0.0966
     10 C          59.6450   86.7997    8.7243 C.3     1  UNL1        0.0568
     11 C          60.9168   86.2941    8.1105 C.3     1  UNL1        0.1644
     12 F          60.8661   85.2668    7.0187 F       1  UNL1       -0.2372
     13 C          62.2395   86.8158    8.5884 C.3     1  UNL1        0.0568
     14 C          62.2902   87.8432    9.6802 C.3     1  UNL1        0.0966
     15 C          63.1361   84.7826   13.7913 C.ar    1  UNL1        0.1333
     16 C          62.6747   85.2220   12.4334 C.ar    1  UNL1        0.0208
     17 C          62.7735   86.6657   12.0384 C.ar    1  UNL1        0.0028
     18 C          63.3338   87.6700   13.0014 C.ar    1  UNL1        0.0191
     19 C          63.7953   87.2307   14.3593 C.ar    1  UNL1        0.0700
     20 CL         64.3556   88.2350   15.3223 Cl      1  UNL1       -0.0813
     21 C          63.6964   85.7870   14.7543 C.ar    1  UNL1        0.0867
     22 CL         64.1579   85.3477   16.1123 Cl      1  UNL1       -0.0800
     23 S          63.0373   83.3390   14.1863 S.O2    1  UNL1        0.0613
     24 O          61.7372   83.6179   14.8805 O.2     1  UNL1       -0.1530
     25 O          64.3374   83.0600   13.4920 O.2     1  UNL1       -0.1530
     26 N          62.9384   81.8953   14.5813 N.3     1  UNL1       -0.1723
     27 H          63.8768   81.5033   14.5017 H       1  UNL1        0.1491
     28 C          60.6129   80.7686   14.3120 C.3     1  UNL1        0.0278
     29 C          62.0198   80.9745   13.8341 C.3     1  UNL1        0.1701
     30 C          62.5080   80.2596   12.6092 C.3     1  UNL1        0.4118
     31 F          62.9962   79.5446   11.3842 F       1  UNL1       -0.1685
     32 F          62.6938   79.0075   13.4140 F       1  UNL1       -0.1685
     33 F          62.3221   81.5117   11.8044 F       1  UNL1       -0.1685
     34 C          65.1426   92.5899   12.3653 C.2     1  UNL1        0.2699
     35 O          65.7054   93.0536   13.6762 O.2     1  UNL1       -0.2679
     36 N          65.4583   93.3408   11.1059 N.am    1  UNL1       -0.2969
     37 H          65.0889   93.0365   10.2455 H       1  UNL1        0.1499
     38 C          66.3368   94.5556   11.1572 C.3     1  UNL1        0.1166
     39 C          67.1302   94.9589    9.9496 C.3     1  UNL1        0.1064
     40 C          67.4523   93.5188    9.6803 C.3     1  UNL1        0.0311
     41 C          66.8080   96.3989   10.2190 C.3     1  UNL1        0.0311
     42 O          67.9235   95.3622    8.7422 O.3     1  UNL1       -0.3851
     43 H          68.2909   94.5712    8.3177 H       1  UNL1        0.2103
@<TRIPOS>BOND
     1    29    28    1
     2    29    26    1
     3    26    23    1
     4    23    24    2
     5    23    25    2
     6    23    15    1
     7    15    16   ar
     8    16    17   ar
     9    17    18   ar
    10    18     1    1
    11     1     2   ar
    12     2     3   ar
    13     3    34    1
    14    34    35    2
    15    34    36   am
    16    36    38    1
    17    38    39    1
    18    39    40    1
    19    39    41    1
    20    39    42    1
    21     3     4   ar
    22     4     5   ar
    23     5     6    1
    24     6     7    2
    25     6     8   am
    26     8     9    1
    27     9    10    1
    28    10    11    1
    29    11    12    1
    30    11    13    1
    31    13    14    1
    32    18    19   ar
    33    19    20    1
    34    19    21   ar
    35    21    22    1
    36    29    30    1
    37    30    31    1
    38    30    32    1
    39    30    33    1
    40    21    15   ar
    41     5     1   ar
    42    14     8    1
    43    26    27    1
    44    36    37    1
    45    42    43    1
@<TRIPOS>MOLECULE
*****
 43 45 0 0 0
SMALL
GASTEIGER

@<TRIPOS>ATOM
      1 C          61.8604   88.8616   10.7832 C.ar    1  UNL1        0.0539
      2 S          61.1535   89.5503    9.6536 S.2     1  UNL1       -0.0619
      3 C          60.3408   88.5241    8.9211 C.ar    1  UNL1        0.1641
      4 N          60.5455   87.2013    9.5979 N.ar    1  UNL1       -0.2291
      5 C          61.4846   87.4098   10.7488 C.ar    1  UNL1        0.1414
      6 C          61.9638   86.3523   11.6985 C.2     1  UNL1        0.2673
      7 O          61.7002   86.4894   13.1688 O.2     1  UNL1       -0.2682
      8 N          62.7067   85.1577   11.1780 N.am    1  UNL1       -0.2747
      9 C          63.1859   84.1001   12.1277 C.3     1  UNL1        0.0966
     10 C          63.9288   82.9055   11.6071 C.3     1  UNL1        0.0568
     11 C          64.1925   82.7684   10.1369 C.3     1  UNL1        0.1644
     12 F          64.9353   81.5737    9.6163 F       1  UNL1       -0.2372
     13 C          63.7133   83.8259    9.1871 C.3     1  UNL1        0.0568
     14 C          62.9704   85.0205    9.7077 C.3     1  UNL1        0.0966
     15 C          64.6233   90.8089   13.7538 C.ar    1  UNL1        0.1333
     16 C          63.9408   89.5184   14.0984 C.ar    1  UNL1        0.0208
     17 C          63.0198   88.8693   13.1082 C.ar    1  UNL1        0.0028
     18 C          62.7814   89.5107   11.7734 C.ar    1  UNL1        0.0191
     19 C          63.4638   90.8012   11.4288 C.ar    1  UNL1        0.0700
     20 CL         63.2254   91.4426   10.0940 Cl      1  UNL1       -0.0813
     21 C          64.3848   91.4503   12.4190 C.ar    1  UNL1        0.0867
     22 CL         65.0673   92.7409   12.0743 Cl      1  UNL1       -0.0800
     23 S          65.5443   91.4580   14.7440 S.O2    1  UNL1        0.0613
     24 O          64.3603   91.9667   15.5117 O.2     1  UNL1       -0.1530
     25 O          66.7283   90.9494   13.9762 O.2     1  UNL1       -0.1530
     26 N          66.4653   92.1072   15.7341 N.3     1  UNL1       -0.1723
     27 H          65.8810   92.4608   16.4918 H       1  UNL1        0.1491
     28 C          66.8959   94.1796   14.2276 C.3     1  UNL1        0.0278
     29 C          67.3501   93.2397   15.3049 C.3     1  UNL1        0.1701
     30 C          68.6892   93.4325   15.9528 C.3     1  UNL1        0.4118
     31 F          70.0282   93.6252   16.6007 F       1  UNL1       -0.1685
     32 F          68.5617   94.9164   15.7746 F       1  UNL1       -0.1685
     33 F          68.8166   91.9485   16.1309 F       1  UNL1       -0.1685
     34 C          59.4754   88.7766    7.7222 C.2     1  UNL1        0.2699
     35 O          58.3363   87.8515    7.4112 O.2     1  UNL1       -0.2679
     36 N          59.7492   89.9541    6.8342 N.am    1  UNL1       -0.2969
     37 H          60.4968   90.5613    7.0383 H       1  UNL1        0.1499
     38 C          58.8838   90.2066    5.6353 C.3     1  UNL1        0.1166
     39 C          59.0159   91.4913    4.8722 C.3     1  UNL1        0.1064
     40 C          60.5075   91.3333    4.8645 C.3     1  UNL1        0.0311
     41 C          57.5242   91.6492    4.8799 C.3     1  UNL1        0.0311
     42 O          59.1479   92.7759    4.1091 O.3     1  UNL1       -0.3851
     43 H          60.0858   92.9565    3.9398 H       1  UNL1        0.2103
@<TRIPOS>BOND
     1    29    28    1
     2    29    26    1
     3    26    23    1
     4    23    24    2
     5    23    25    2
     6    23    15    1
     7    15    16   ar
     8    16    17   ar
     9    17    18   ar
    10    18     1    1
    11     1     2   ar
    12     2     3   ar
    13     3    34    1
    14    34    35    2
    15    34    36   am
    16    36    38    1
    17    38    39    1
    18    39    40    1
    19    39    41    1
    20    39    42    1
    21     3     4   ar
    22     4     5   ar
    23     5     6    1
    24     6     7    2
    25     6     8   am
    26     8     9    1
    27     9    10    1
    28    10    11    1
    29    11    12    1
    30    11    13    1
    31    13    14    1
    32    18    19   ar
    33    19    20    1
    34    19    21   ar
    35    21    22    1
    36    29    30    1
    37    30    31    1
    38    30    32    1
    39    30    33    1
    40    21    15   ar
    41     5     1   ar
    42    14     8    1
    43    26    27    1
    44    36    37    1
    45    42    43    1
@<TRIPOS>MOLECULE
*****
 43 45 0 0 0
SMALL
GASTEIGER

@<TRIPOS>ATOM
      1 C          61.0365   88.0333    9.3644 C.ar    1  UNL1        0.0539
      2 S          60.5187   88.1363    7.9604 S.2     1  UNL1       -0.0619
      3 C          60.0394   89.5412    7.7449 C.ar    1  UNL1        0.1641
      4 N          60.2609   90.3066    9.0158 N.ar    1  UNL1       -0.2291
      5 C          60.8771   89.3746   10.0167 C.ar    1  UNL1        0.1414
      6 C          61.2658   89.7229   11.4230 C.2     1  UNL1        0.2673
      7 O          60.4054   89.2820   12.5700 O.2     1  UNL1       -0.2682
      8 N          62.5147   90.5121   11.6824 N.am    1  UNL1       -0.2747
      9 C          62.9033   90.8604   13.0887 C.3     1  UNL1        0.0966
     10 C          64.1523   91.6496   13.3481 C.3     1  UNL1        0.0568
     11 C          65.0126   92.0905   12.2012 C.3     1  UNL1        0.1644
     12 F          66.2616   92.8797   12.4606 F       1  UNL1       -0.2372
     13 C          64.6240   91.7422   10.7949 C.3     1  UNL1        0.0568
     14 C          63.3751   90.9530   10.5355 C.3     1  UNL1        0.0966
     15 C          62.7645   84.3477   11.2828 C.ar    1  UNL1        0.1333
     16 C          61.9387   85.2997   12.0963 C.ar    1  UNL1        0.0208
     17 C          61.3627   86.5282   11.4568 C.ar    1  UNL1        0.0028
     18 C          61.6125   86.8048   10.0039 C.ar    1  UNL1        0.0191
     19 C          62.4383   85.8528    9.1904 C.ar    1  UNL1        0.0700
     20 CL         62.6881   86.1294    7.7374 Cl      1  UNL1       -0.0813
     21 C          63.0143   84.6243    9.8299 C.ar    1  UNL1        0.0867
     22 CL         63.8401   83.6723    9.0163 Cl      1  UNL1       -0.0800
     23 S          63.3405   83.1192   11.9223 S.O2    1  UNL1        0.0613
     24 O          64.5464   83.9047   12.3451 O.2     1  UNL1       -0.1530
     25 O          62.1346   82.3337   11.4994 O.2     1  UNL1       -0.1530
     26 N          63.9165   81.8906   12.5617 N.3     1  UNL1       -0.1723
     27 H          63.8294   81.1360   11.8811 H       1  UNL1        0.1491
     28 C          63.2414   79.9017   14.0909 C.3     1  UNL1        0.0278
     29 C          63.3463   81.3787   13.8512 C.3     1  UNL1        0.1701
     30 C          62.8810   82.3438   14.9010 C.3     1  UNL1        0.4118
     31 F          62.4157   83.3089   15.9508 F       1  UNL1       -0.1685
     32 F          61.4577   81.9614   14.6217 F       1  UNL1       -0.1685
     33 F          64.3043   82.7262   15.1804 F       1  UNL1       -0.1685
     34 C          59.4432   90.0852    6.4806 C.2     1  UNL1        0.2699
     35 O          58.0078   89.8051    6.1471 O.2     1  UNL1       -0.2679
     36 N          60.2824   90.9093    5.5497 N.am    1  UNL1       -0.2969
     37 H          61.2245   91.0932    5.7686 H       1  UNL1        0.1499
     38 C          59.6862   91.4533    4.2854 C.3     1  UNL1        0.1166
     39 C          60.5552   92.1685    3.2936 C.3     1  UNL1        0.1064
     40 C          59.3425   92.8278    2.7064 C.3     1  UNL1        0.0311
     41 C          61.7679   91.5091    3.8808 C.3     1  UNL1        0.0311
     42 O          61.4242   92.8835    2.3018 O.3     1  UNL1       -0.3851
     43 H          60.8721   93.4397    1.7301 H       1  UNL1        0.2103
@<TRIPOS>BOND
     1    29    28    1
     2    29    26    1
     3    26    23    1
     4    23    24    2
     5    23    25    2
     6    23    15    1
     7    15    16   ar
     8    16    17   ar
     9    17    18   ar
    10    18     1    1
    11     1     2   ar
    12     2     3   ar
    13     3    34    1
    14    34    35    2
    15    34    36   am
    16    36    38    1
    17    38    39    1
    18    39    40    1
    19    39    41    1
    20    39    42    1
    21     3     4   ar
    22     4     5   ar
    23     5     6    1
    24     6     7    2
    25     6     8   am
    26     8     9    1
    27     9    10    1
    28    10    11    1
    29    11    12    1
    30    11    13    1
    31    13    14    1
    32    18    19   ar
    33    19    20    1
    34    19    21   ar
    35    21    22    1
    36    29    30    1
    37    30    31    1
    38    30    32    1
    39    30    33    1
    40    21    15   ar
    41     5     1   ar
    42    14     8    1
    43    26    27    1
    44    36    37    1
    45    42    43    1
@<TRIPOS>MOLECULE
*****
 43 45 0 0 0
SMALL
GASTEIGER

@<TRIPOS>ATOM
      1 C          63.8109   89.5512   13.1279 C.ar    1  UNL1        0.0539
      2 S          65.0053   90.4533   13.2261 S.2     1  UNL1       -0.0619
      3 C          64.5855   91.8270   12.7939 C.ar    1  UNL1        0.1641
      4 N          63.1317   91.7739   12.4286 N.ar    1  UNL1       -0.2291
      5 C          62.6530   90.3674   12.6350 C.ar    1  UNL1        0.1414
      6 C          61.2607   89.8652   12.3913 C.2     1  UNL1        0.2673
      7 O          60.3114   89.6988   13.5409 O.2     1  UNL1       -0.2682
      8 N          60.8175   89.5296   10.9982 N.am    1  UNL1       -0.2747
      9 C          59.4253   89.0274   10.7545 C.3     1  UNL1        0.0966
     10 C          58.9822   88.6917    9.3613 C.3     1  UNL1        0.0568
     11 C          59.9313   88.8582    8.2118 C.3     1  UNL1        0.1644
     12 F          59.4882   88.5225    6.8186 F       1  UNL1       -0.2372
     13 C          61.3236   89.3603    8.4554 C.3     1  UNL1        0.0568
     14 C          61.7667   89.6960    9.8486 C.3     1  UNL1        0.0966
     15 C          63.7180   85.1663   14.1351 C.ar    1  UNL1        0.1333
     16 C          64.2167   86.1573   15.1446 C.ar    1  UNL1        0.0208
     17 C          64.2477   87.6189   14.8089 C.ar    1  UNL1        0.0028
     18 C          63.7800   88.0896   13.4636 C.ar    1  UNL1        0.0191
     19 C          63.2812   87.0986   12.4541 C.ar    1  UNL1        0.0700
     20 CL         62.8135   87.5692   11.1088 Cl      1  UNL1       -0.0813
     21 C          63.2503   85.6369   12.7898 C.ar    1  UNL1        0.0867
     22 CL         62.7515   84.6459   11.7802 Cl      1  UNL1       -0.0800
     23 S          63.6870   83.7047   14.4708 S.O2    1  UNL1        0.0613
     24 O          65.1582   83.6099   14.1939 O.2     1  UNL1       -0.1530
     25 O          62.2159   83.7995   14.7477 O.2     1  UNL1       -0.1530
     26 N          63.6560   82.2431   14.8065 N.3     1  UNL1       -0.1723
     27 H          64.6129   81.9729   15.0343 H       1  UNL1        0.1491
     28 C          62.3931   80.0418   14.2502 C.3     1  UNL1        0.0278
     29 C          63.1548   81.2524   13.7980 C.3     1  UNL1        0.1701
     30 C          63.4152   81.4721   12.3372 C.3     1  UNL1        0.4118
     31 F          63.6756   81.6919   10.8764 F       1  UNL1       -0.1685
     32 F          61.9429   81.6317   12.0988 F       1  UNL1       -0.1685
     33 F          64.8875   81.3125   12.5756 F       1  UNL1       -0.1685
     34 C          65.4652   93.0406   12.7371 C.2     1  UNL1        0.2699
     35 O          66.1734   93.5122   13.9725 O.2     1  UNL1       -0.2679
     36 N          65.6366   93.7827   11.4449 N.am    1  UNL1       -0.2969
     37 H          65.1718   93.4732   10.6341 H       1  UNL1        0.1499
     38 C          66.5163   94.9964   11.3880 C.3     1  UNL1        0.1166
     39 C          67.1221   95.4231   10.0837 C.3     1  UNL1        0.1064
     40 C          66.8262   96.8559   10.4151 C.3     1  UNL1        0.0311
     41 C          67.4179   93.9903    9.7524 C.3     1  UNL1        0.0311
     42 O          67.7278   95.8498    8.7795 O.3     1  UNL1       -0.3851
     43 H          67.6781   96.8153    8.7003 H       1  UNL1        0.2103
@<TRIPOS>BOND
     1    29    28    1
     2    29    26    1
     3    26    23    1
     4    23    24    2
     5    23    25    2
     6    23    15    1
     7    15    16   ar
     8    16    17   ar
     9    17    18   ar
    10    18     1    1
    11     1     2   ar
    12     2     3   ar
    13     3    34    1
    14    34    35    2
    15    34    36   am
    16    36    38    1
    17    38    39    1
    18    39    40    1
    19    39    41    1
    20    39    42    1
    21     3     4   ar
    22     4     5   ar
    23     5     6    1
    24     6     7    2
    25     6     8   am
    26     8     9    1
    27     9    10    1
    28    10    11    1
    29    11    12    1
    30    11    13    1
    31    13    14    1
    32    18    19   ar
    33    19    20    1
    34    19    21   ar
    35    21    22    1
    36    29    30    1
    37    30    31    1
    38    30    32    1
    39    30    33    1
    40    21    15   ar
    41     5     1   ar
    42    14     8    1
    43    26    27    1
    44    36    37    1
    45    42    43    1
@<TRIPOS>MOLECULE
*****
 43 45 0 0 0
SMALL
GASTEIGER

@<TRIPOS>ATOM
      1 C          63.9651   89.0899   14.2586 C.ar    1  UNL1        0.0539
      2 S          65.2002   89.8640   14.6128 S.2     1  UNL1       -0.0619
      3 C          64.9043   91.3220   14.4215 C.ar    1  UNL1        0.1641
      4 N          63.4863   91.4491   13.9491 N.ar    1  UNL1       -0.2291
      5 C          62.9059   90.0696   13.8485 C.ar    1  UNL1        0.1414
      6 C          61.5110   89.7295   13.4140 C.2     1  UNL1        0.2673
      7 O          60.4509   89.4586   14.4401 O.2     1  UNL1       -0.2682
      8 N          61.1763   89.6604   11.9535 N.am    1  UNL1       -0.2747
      9 C          59.7814   89.3203   11.5190 C.3     1  UNL1        0.0966
     10 C          59.4467   89.2512   10.0585 C.3     1  UNL1        0.0568
     11 C          60.5067   89.5221    9.0324 C.3     1  UNL1        0.1644
     12 F          60.1720   89.4530    7.5719 F       1  UNL1       -0.2372
     13 C          61.9016   89.8622    9.4669 C.3     1  UNL1        0.0568
     14 C          62.2363   89.9313   10.9274 C.3     1  UNL1        0.0966
     15 C          63.5164   84.6146   14.4016 C.ar    1  UNL1        0.1333
     16 C          63.8811   85.3719   15.6439 C.ar    1  UNL1        0.0208
     17 C          64.0307   86.8637   15.5963 C.ar    1  UNL1        0.0028
     18 C          63.8155   87.5982   14.3063 C.ar    1  UNL1        0.0191
     19 C          63.4507   86.8409   13.0640 C.ar    1  UNL1        0.0700
     20 CL         63.2355   87.5754   11.7739 Cl      1  UNL1       -0.0813
     21 C          63.3011   85.3492   13.1116 C.ar    1  UNL1        0.0867
     22 CL         62.9363   84.5919   11.8692 Cl      1  UNL1       -0.0800
     23 S          63.3668   83.1229   14.4493 S.O2    1  UNL1        0.0613
     24 O          64.6270   82.9710   13.6500 O.2     1  UNL1       -0.1530
     25 O          62.1066   83.2748   15.2485 O.2     1  UNL1       -0.1530
     26 N          63.2172   81.6311   14.4969 N.3     1  UNL1       -0.1723
     27 H          64.1179   81.2361   14.2265 H       1  UNL1        0.1491
     28 C          60.7638   80.8511   14.1467 C.3     1  UNL1        0.0278
     29 C          62.1770   80.9544   13.6544 C.3     1  UNL1        0.1701
     30 C          62.5499   80.3809   12.3194 C.3     1  UNL1        0.4118
     31 F          62.9228   79.8073   10.9845 F       1  UNL1       -0.1685
     32 F          62.7039   79.0260   12.9445 F       1  UNL1       -0.1685
     33 F          62.3959   81.7357   11.6943 F       1  UNL1       -0.1685
     34 C          65.8588   92.4541   14.6606 C.2     1  UNL1        0.2699
     35 O          65.8329   93.6585   13.7668 O.2     1  UNL1       -0.2679
     36 N          66.8393   92.3819   15.7935 N.am    1  UNL1       -0.2969
     37 H          66.8563   91.5914   16.3801 H       1  UNL1        0.1499
     38 C          67.7938   93.5140   16.0326 C.3     1  UNL1        0.1166
     39 C          69.1610   93.4852   15.4158 C.3     1  UNL1        0.1064
     40 C          69.5064   94.7627   16.1221 C.3     1  UNL1        0.0311
     41 C          68.8154   92.2077   14.7096 C.3     1  UNL1        0.0311
     42 O          70.5280   93.4564   14.7991 O.3     1  UNL1       -0.3851
     43 H          71.0333   94.2291   15.0968 H       1  UNL1        0.2103
@<TRIPOS>BOND
     1    29    28    1
     2    29    26    1
     3    26    23    1
     4    23    24    2
     5    23    25    2
     6    23    15    1
     7    15    16   ar
     8    16    17   ar
     9    17    18   ar
    10    18     1    1
    11     1     2   ar
    12     2     3   ar
    13     3    34    1
    14    34    35    2
    15    34    36   am
    16    36    38    1
    17    38    39    1
    18    39    40    1
    19    39    41    1
    20    39    42    1
    21     3     4   ar
    22     4     5   ar
    23     5     6    1
    24     6     7    2
    25     6     8   am
    26     8     9    1
    27     9    10    1
    28    10    11    1
    29    11    12    1
    30    11    13    1
    31    13    14    1
    32    18    19   ar
    33    19    20    1
    34    19    21   ar
    35    21    22    1
    36    29    30    1
    37    30    31    1
    38    30    32    1
    39    30    33    1
    40    21    15   ar
    41     5     1   ar
    42    14     8    1
    43    26    27    1
    44    36    37    1
    45    42    43    1
@<TRIPOS>MOLECULE
*****
 43 45 0 0 0
SMALL
GASTEIGER

@<TRIPOS>ATOM
      1 C          61.8751   94.1798   -3.3133 C.ar    1  UNL1        0.0539
      2 S          63.2079   93.8165   -3.8976 S.2     1  UNL1       -0.0619
      3 C          63.1977   94.1981   -5.3482 C.ar    1  UNL1        0.1641
      4 N          61.8585   94.7973   -5.6604 N.ar    1  UNL1       -0.2291
      5 C          61.0411   94.7860   -4.4028 C.ar    1  UNL1        0.1414
      6 C          59.6363   95.2921   -4.2597 C.2     1  UNL1        0.2673
      7 O          59.3217   96.7274   -4.5618 O.2     1  UNL1       -0.2682
      8 N          58.5461   94.3631   -3.8146 N.am    1  UNL1       -0.2747
      9 C          57.1413   94.8691   -3.6716 C.3     1  UNL1        0.0966
     10 C          56.0511   93.9400   -3.2265 C.3     1  UNL1        0.0568
     11 C          56.3655   92.5048   -2.9244 C.3     1  UNL1        0.1644
     12 F          55.2753   91.5757   -2.4793 F       1  UNL1       -0.2372
     13 C          57.7703   91.9987   -3.0674 C.3     1  UNL1        0.0568
     14 C          58.8606   92.9278   -3.5125 C.3     1  UNL1        0.0966
     15 C          60.6020   93.5600    0.9581 C.ar    1  UNL1        0.1333
     16 C          60.8680   92.3767    0.0756 C.ar    1  UNL1        0.0208
     17 C          61.2924   92.5833   -1.3482 C.ar    1  UNL1        0.0028
     18 C          61.4507   93.9732   -1.8895 C.ar    1  UNL1        0.0191
     19 C          61.1847   95.1565   -1.0069 C.ar    1  UNL1        0.0700
     20 CL         61.3430   96.5465   -1.5482 Cl      1  UNL1       -0.0813
     21 C          60.7603   94.9499    0.4169 C.ar    1  UNL1        0.0867
     22 CL         60.4942   96.1333    1.2994 Cl      1  UNL1       -0.0800
     23 S          60.1776   93.3534    2.3819 S.O2    1  UNL1        0.0613
     24 O          61.5802   93.6244    2.8393 O.2     1  UNL1       -0.1530
     25 O          58.7750   93.0823    1.9246 O.2     1  UNL1       -0.1530
     26 N          59.7532   93.1467    3.8057 N.3     1  UNL1       -0.1723
     27 H          60.2755   93.8178    4.3690 H       1  UNL1        0.1491
     28 C          61.2672   91.1254    4.4160 C.3     1  UNL1        0.0278
     29 C          59.9309   91.8059    4.4543 C.3     1  UNL1        0.1701
     30 C          58.7724   91.1456    5.1411 C.3     1  UNL1        0.4118
     31 F          57.6139   90.4852    5.8279 F       1  UNL1       -0.1685
     32 F          57.8862   92.2895    4.7461 F       1  UNL1       -0.1685
     33 F          59.6586   90.0016    5.5361 F       1  UNL1       -0.1685
     34 C          64.3282   94.0130   -6.3166 C.2     1  UNL1        0.2699
     35 O          64.2079   93.0125   -7.4276 O.2     1  UNL1       -0.2679
     36 N          65.5790   94.8285   -6.1739 N.am    1  UNL1       -0.2969
     37 H          65.6580   95.4852   -5.4447 H       1  UNL1        0.1499
     38 C          66.7095   94.6434   -7.1422 C.3     1  UNL1        0.1166
     39 C          67.8783   95.5836   -7.1192 C.3     1  UNL1        0.1064
     40 C          66.9745   96.6963   -6.6776 C.3     1  UNL1        0.0311
     41 C          68.7820   94.4707   -7.5609 C.3     1  UNL1        0.0311
     42 O          69.0469   96.5236   -7.0962 O.3     1  UNL1       -0.3851
     43 H          68.7479   97.4046   -6.8220 H       1  UNL1        0.2103
@<TRIPOS>BOND
     1    29    28    1
     2    29    26    1
     3    26    23    1
     4    23    24    2
     5    23    25    2
     6    23    15    1
     7    15    16   ar
     8    16    17   ar
     9    17    18   ar
    10    18     1    1
    11     1     2   ar
    12     2     3   ar
    13     3    34    1
    14    34    35    2
    15    34    36   am
    16    36    38    1
    17    38    39    1
    18    39    40    1
    19    39    41    1
    20    39    42    1
    21     3     4   ar
    22     4     5   ar
    23     5     6    1
    24     6     7    2
    25     6     8   am
    26     8     9    1
    27     9    10    1
    28    10    11    1
    29    11    12    1
    30    11    13    1
    31    13    14    1
    32    18    19   ar
    33    19    20    1
    34    19    21   ar
    35    21    22    1
    36    29    30    1
    37    30    31    1
    38    30    32    1
    39    30    33    1
    40    21    15   ar
    41     5     1   ar
    42    14     8    1
    43    26    27    1
    44    36    37    1
    45    42    43    1
