@<TRIPOS>MOLECULE
*****
 34 38 0 0 0
SMALL
GASTEIGER

@<TRIPOS>ATOM
      1 C          62.4889   94.2338    1.5249 C.3     1  UNL1        0.1531
      2 C          62.8141   92.9310    2.1934 C.3     1  UNL1        0.1067
      3 N          61.8062   92.2764    3.0909 N.3     1  UNL1       -0.2665
      4 C          62.1313   90.9735    3.7594 C.3     1  UNL1        0.0940
      5 C          61.1234   90.3190    4.6569 C.3     1  UNL1        0.1107
      6 N          59.7902   90.9672    4.8859 N.am    1  UNL1       -0.2763
      7 C          58.7822   90.3126    5.7834 C.2     1  UNL1        0.2318
      8 O          57.4491   90.9608    6.0124 O.2     1  UNL1       -0.2744
      9 C          59.4650   92.2700    4.2174 C.3     1  UNL1        0.1119
     10 C          60.4730   92.9246    3.3199 C.3     1  UNL1        0.1075
     11 C          60.1478   94.2275    2.6514 C.3     1  UNL1        0.1601
     12 O          61.1557   94.8820    1.7539 O.3     1  UNL1       -0.3489
     13 C          62.5147   93.6087   -1.4091 C.3     1  UNL1        0.0316
     14 C          63.5098   94.5759   -0.8396 C.ar    1  UNL1       -0.0117
     15 C          63.4969   94.8884    0.6274 C.ar    1  UNL1        0.0027
     16 C          64.4920   95.8556    1.1969 C.ar    1  UNL1        0.0001
     17 C          65.4999   96.5102    0.2995 C.ar    1  UNL1        0.0301
     18 C          65.5128   96.1977   -1.1676 C.ar    1  UNL1        0.1493
     19 F          66.5208   96.8523   -2.0650 F       1  UNL1       -0.2035
     20 C          64.5178   95.2305   -1.7371 C.ar    1  UNL1        0.0916
     21 C          64.5306   94.9180   -3.2041 C.1     1  UNL1        0.1024
     22 N          64.5435   94.6054   -4.6711 N.1     1  UNL1       -0.1908
     23 C          59.1074   89.0097    6.4519 C.3     1  UNL1        0.1309
     24 C          59.8792   88.9989    7.7380 C.ar    1  UNL1        0.0683
     25 C          60.6049   87.7580    8.1668 C.ar    1  UNL1        0.0168
     26 C          61.3766   87.7472    9.4530 C.ar    1  UNL1        0.0221
     27 C          61.4227   88.9771   10.3104 C.ar    1  UNL1        0.1053
     28 C          60.6970   90.2178    9.8817 C.ar    1  UNL1        0.1176
     29 N          59.9252   90.2288    8.5955 N.ar    1  UNL1       -0.2461
     30 N          62.1944   88.9662   11.5966 N.ar    1  UNL1       -0.1871
     31 C          62.3945   90.1354   12.5147 C.ar    1  UNL1        0.2259
     32 N          63.2253   89.6760   13.6761 N.ar    1  UNL1       -0.1045
     33 N          63.5387   88.2228   13.4757 N.ar    1  UNL1       -0.0222
     34 N          62.9015   87.7841   12.1906 N.ar    1  UNL1       -0.0384
@<TRIPOS>BOND
     1    13    14    1
     2    14    15   ar
     3     1    15    1
     4     1     2    1
     5     2     3    1
     6     3     4    1
     7     4     5    1
     8     5     6    1
     9     6     7   am
    10     7     8    2
    11     7    23    1
    12    23    24    1
    13    24    25   ar
    14    25    26   ar
    15    26    27   ar
    16    27    30    1
    17    30    31   ar
    18    31    32   ar
    19    32    33   ar
    20    33    34   ar
    21    27    28   ar
    22    28    29   ar
    23     6     9    1
    24    10     9    1
    25    10    11    1
    26    11    12    1
    27    15    16   ar
    28    16    17   ar
    29    17    18   ar
    30    18    19    1
    31    18    20   ar
    32    20    21    1
    33    21    22    3
    34    20    14   ar
    35    12     1    1
    36    10     3    1
    37    29    24   ar
    38    34    30   ar
@<TRIPOS>MOLECULE
*****
 34 38 0 0 0
SMALL
GASTEIGER

@<TRIPOS>ATOM
      1 C          63.4542   84.6463   13.4692 C.3     1  UNL1        0.1531
      2 C          63.5732   85.9712   12.7762 C.3     1  UNL1        0.1067
      3 N          63.6954   87.2306   13.5817 N.3     1  UNL1       -0.2665
      4 C          63.8145   88.5557   12.8887 C.3     1  UNL1        0.0940
      5 C          63.9366   89.8150   13.6943 C.3     1  UNL1        0.1107
      6 N          63.9398   89.7495   15.1929 N.am    1  UNL1       -0.2763
      7 C          64.0620   91.0089   15.9985 C.2     1  UNL1        0.2318
      8 O          64.0651   90.9434   17.4970 O.2     1  UNL1       -0.2744
      9 C          63.8207   88.4245   15.8859 C.3     1  UNL1        0.1119
     10 C          63.6985   87.1650   15.0803 C.3     1  UNL1        0.1075
     11 C          63.5795   85.8401   15.7733 C.3     1  UNL1        0.1601
     12 O          63.4573   84.5807   14.9677 O.3     1  UNL1       -0.3489
     13 C          62.3805   82.1504   14.7410 C.3     1  UNL1        0.0316
     14 C          62.7951   82.1389   13.2995 C.ar    1  UNL1       -0.0117
     15 C          63.3320   83.3868   12.6636 C.ar    1  UNL1        0.0027
     16 C          63.7466   83.3753   11.2221 C.ar    1  UNL1        0.0001
     17 C          63.6244   82.1160   10.4165 C.ar    1  UNL1        0.0301
     18 C          63.0876   80.8679   11.0525 C.ar    1  UNL1        0.1493
     19 F          62.9654   79.6086   10.2469 F       1  UNL1       -0.2035
     20 C          62.6729   80.8794   12.4940 C.ar    1  UNL1        0.0916
     21 C          62.1361   79.6315   13.1299 C.1     1  UNL1        0.1024
     22 N          61.5992   78.3836   13.7658 N.1     1  UNL1       -0.1908
     23 C          64.1810   92.3339   15.3055 C.3     1  UNL1        0.1309
     24 C          64.9585   92.4446   14.0275 C.ar    1  UNL1        0.0683
     25 C          66.4425   92.6596   14.0686 C.ar    1  UNL1        0.0168
     26 C          67.2200   92.7703   12.7907 C.ar    1  UNL1        0.0221
     27 C          66.5136   92.6661   11.4715 C.ar    1  UNL1        0.1053
     28 C          65.0296   92.4512   11.4304 C.ar    1  UNL1        0.1176
     29 N          64.2521   92.3404   12.7084 N.ar    1  UNL1       -0.2461
     30 N          67.2910   92.7769   10.1936 N.ar    1  UNL1       -0.1871
     31 C          67.2914   93.9515    9.2607 C.ar    1  UNL1        0.2259
     32 N          68.2053   93.6330    8.1146 N.ar    1  UNL1       -0.1045
     33 N          68.7698   92.2615    8.3392 N.ar    1  UNL1       -0.0222
     34 N          68.2048   91.7324    9.6240 N.ar    1  UNL1       -0.0384
@<TRIPOS>BOND
     1    13    14    1
     2    14    15   ar
     3     1    15    1
     4     1     2    1
     5     2     3    1
     6     3     4    1
     7     4     5    1
     8     5     6    1
     9     6     7   am
    10     7     8    2
    11     7    23    1
    12    23    24    1
    13    24    25   ar
    14    25    26   ar
    15    26    27   ar
    16    27    30    1
    17    30    31   ar
    18    31    32   ar
    19    32    33   ar
    20    33    34   ar
    21    27    28   ar
    22    28    29   ar
    23     6     9    1
    24    10     9    1
    25    10    11    1
    26    11    12    1
    27    15    16   ar
    28    16    17   ar
    29    17    18   ar
    30    18    19    1
    31    18    20   ar
    32    20    21    1
    33    21    22    3
    34    20    14   ar
    35    12     1    1
    36    10     3    1
    37    29    24   ar
    38    34    30   ar
@<TRIPOS>MOLECULE
*****
 34 38 0 0 0
SMALL
GASTEIGER

@<TRIPOS>ATOM
      1 C          62.1014   86.1582   11.2519 C.3     1  UNL1        0.1531
      2 C          62.1764   87.6244   10.9444 C.3     1  UNL1        0.1067
      3 N          61.4265   88.1841    9.7721 N.3     1  UNL1       -0.2665
      4 C          61.5014   89.6504    9.4646 C.3     1  UNL1        0.0940
      5 C          60.7515   90.2101    8.2923 C.3     1  UNL1        0.1107
      6 N          59.9267   89.3036    7.4275 N.am    1  UNL1       -0.2763
      7 C          59.1768   89.8635    6.2552 C.2     1  UNL1        0.2318
      8 O          58.3519   88.9570    5.3903 O.2     1  UNL1       -0.2744
      9 C          59.8517   87.8374    7.7349 C.3     1  UNL1        0.1119
     10 C          60.6017   87.2776    8.9073 C.3     1  UNL1        0.1075
     11 C          60.5267   85.8114    9.2147 C.3     1  UNL1        0.1601
     12 O          61.2766   85.2517   10.3870 O.3     1  UNL1       -0.3489
     13 C          62.2685   83.1889   11.6465 C.3     1  UNL1        0.0316
     14 C          62.9349   84.1138   12.6215 C.ar    1  UNL1       -0.0117
     15 C          62.8514   85.5983   12.4242 C.ar    1  UNL1        0.0027
     16 C          63.5177   86.5232   13.3992 C.ar    1  UNL1        0.0001
     17 C          64.2676   85.9635   14.5715 C.ar    1  UNL1        0.0301
     18 C          64.3512   84.4788   14.7688 C.ar    1  UNL1        0.1493
     19 F          65.1011   83.9191   15.9411 F       1  UNL1       -0.2035
     20 C          63.6848   83.5539   13.7939 C.ar    1  UNL1        0.0916
     21 C          63.7683   82.0694   13.9911 C.1     1  UNL1        0.1024
     22 N          63.8519   80.5848   14.1884 N.1     1  UNL1       -0.1908
     23 C          59.2517   91.3297    5.9477 C.3     1  UNL1        0.1309
     24 C          60.0190   91.8066    4.7503 C.ar    1  UNL1        0.0683
     25 C          61.3842   91.2541    4.4655 C.ar    1  UNL1        0.0168
     26 C          62.1515   91.7311    3.2681 C.ar    1  UNL1        0.0221
     27 C          61.5536   92.7604    2.3554 C.ar    1  UNL1        0.1053
     28 C          60.1884   93.3128    2.6402 C.ar    1  UNL1        0.1176
     29 N          59.4211   92.8359    3.8376 N.ar    1  UNL1       -0.2461
     30 N          62.3208   93.2373    1.1580 N.ar    1  UNL1       -0.1871
     31 C          63.7936   93.5176    1.1089 C.ar    1  UNL1        0.2259
     32 N          64.1331   93.9712   -0.2801 N.ar    1  UNL1       -0.1045
     33 N          62.8700   93.9713   -1.0893 N.ar    1  UNL1       -0.0222
     34 N          61.7500   93.5177   -0.2006 N.ar    1  UNL1       -0.0384
@<TRIPOS>BOND
     1    13    14    1
     2    14    15   ar
     3     1    15    1
     4     1     2    1
     5     2     3    1
     6     3     4    1
     7     4     5    1
     8     5     6    1
     9     6     7   am
    10     7     8    2
    11     7    23    1
    12    23    24    1
    13    24    25   ar
    14    25    26   ar
    15    26    27   ar
    16    27    30    1
    17    30    31   ar
    18    31    32   ar
    19    32    33   ar
    20    33    34   ar
    21    27    28   ar
    22    28    29   ar
    23     6     9    1
    24    10     9    1
    25    10    11    1
    26    11    12    1
    27    15    16   ar
    28    16    17   ar
    29    17    18   ar
    30    18    19    1
    31    18    20   ar
    32    20    21    1
    33    21    22    3
    34    20    14   ar
    35    12     1    1
    36    10     3    1
    37    29    24   ar
    38    34    30   ar
@<TRIPOS>MOLECULE
*****
 34 38 0 0 0
SMALL
GASTEIGER

@<TRIPOS>ATOM
      1 C          63.5860   83.8952   13.7731 C.3     1  UNL1        0.1531
      2 C          62.8865   85.0957   13.2081 C.3     1  UNL1        0.1067
      3 N          63.4096   86.4721   13.4941 N.3     1  UNL1       -0.2665
      4 C          62.7102   87.6728   12.9290 C.3     1  UNL1        0.0940
      5 C          63.2333   89.0492   13.2151 C.3     1  UNL1        0.1107
      6 N          64.4558   89.2250   14.0662 N.am    1  UNL1       -0.2763
      7 C          64.9789   90.6015   14.3522 C.2     1  UNL1        0.2318
      8 O          66.2015   90.7773   15.2033 O.2     1  UNL1       -0.2744
      9 C          65.1553   88.0244   14.6312 C.3     1  UNL1        0.1119
     10 C          64.6322   86.6479   14.3452 C.3     1  UNL1        0.1075
     11 C          65.3317   85.4474   14.9103 C.3     1  UNL1        0.1601
     12 O          64.8086   84.0710   14.6242 O.3     1  UNL1       -0.3489
     13 C          64.1347   82.6028   11.1219 C.3     1  UNL1        0.0316
     14 C          63.3373   81.8726   12.1615 C.ar    1  UNL1       -0.0117
     15 C          63.0629   82.5187   13.4871 C.ar    1  UNL1        0.0027
     16 C          62.2655   81.7884   14.5267 C.ar    1  UNL1        0.0001
     17 C          61.7424   80.4120   14.2407 C.ar    1  UNL1        0.0301
     18 C          62.0168   79.7658   12.9151 C.ar    1  UNL1        0.1493
     19 F          61.4937   78.3894   12.6291 F       1  UNL1       -0.2035
     20 C          62.8142   80.4961   11.8755 C.ar    1  UNL1        0.0916
     21 C          63.0885   79.8499   10.5499 C.1     1  UNL1        0.1024
     22 N          63.3629   79.2038    9.2243 N.1     1  UNL1       -0.1908
     23 C          64.2795   91.8020   13.7872 C.3     1  UNL1        0.1309
     24 C          64.9243   92.5996   12.6927 C.ar    1  UNL1        0.0683
     25 C          64.7511   92.1859   11.2612 C.ar    1  UNL1        0.0168
     26 C          65.3960   92.9835   10.1667 C.ar    1  UNL1        0.0221
     27 C          66.2141   94.1948   10.5036 C.ar    1  UNL1        0.1053
     28 C          66.3873   94.6085   11.9349 C.ar    1  UNL1        0.1176
     29 N          65.7424   93.8109   13.0295 N.ar    1  UNL1       -0.2461
     30 N          66.8590   94.9923    9.4091 N.ar    1  UNL1       -0.1871
     31 C          66.8922   96.4888    9.3108 C.ar    1  UNL1        0.2259
     32 N          67.6377   96.8548    8.0616 N.ar    1  UNL1       -0.1045
     33 N          68.0652   95.5846    7.3879 N.ar    1  UNL1       -0.0222
     34 N          67.5839   94.4336    8.2207 N.ar    1  UNL1       -0.0384
@<TRIPOS>BOND
     1    13    14    1
     2    14    15   ar
     3     1    15    1
     4     1     2    1
     5     2     3    1
     6     3     4    1
     7     4     5    1
     8     5     6    1
     9     6     7   am
    10     7     8    2
    11     7    23    1
    12    23    24    1
    13    24    25   ar
    14    25    26   ar
    15    26    27   ar
    16    27    30    1
    17    30    31   ar
    18    31    32   ar
    19    32    33   ar
    20    33    34   ar
    21    27    28   ar
    22    28    29   ar
    23     6     9    1
    24    10     9    1
    25    10    11    1
    26    11    12    1
    27    15    16   ar
    28    16    17   ar
    29    17    18   ar
    30    18    19    1
    31    18    20   ar
    32    20    21    1
    33    21    22    3
    34    20    14   ar
    35    12     1    1
    36    10     3    1
    37    29    24   ar
    38    34    30   ar
@<TRIPOS>MOLECULE
*****
 34 38 0 0 0
SMALL
GASTEIGER

@<TRIPOS>ATOM
      1 C          59.7966   90.0178    6.1103 C.3     1  UNL1        0.1531
      2 C          61.0414   90.4978    5.4249 C.3     1  UNL1        0.1067
      3 N          60.9502   91.5328    4.3430 N.3     1  UNL1       -0.2665
      4 C          62.1951   92.0129    3.6575 C.3     1  UNL1        0.0940
      5 C          62.1039   93.0478    2.5756 C.3     1  UNL1        0.1107
      6 N          60.7679   93.6027    2.1791 N.am    1  UNL1       -0.2763
      7 C          60.6768   94.6377    1.0972 C.2     1  UNL1        0.2318
      8 O          59.3408   95.1926    0.7007 O.2     1  UNL1       -0.2744
      9 C          59.5231   93.1227    2.8646 C.3     1  UNL1        0.1119
     10 C          59.6142   92.0877    3.9465 C.3     1  UNL1        0.1075
     11 C          58.3694   91.6076    4.6320 C.3     1  UNL1        0.1601
     12 O          58.4605   90.5727    5.7138 O.3     1  UNL1       -0.3489
     13 C          61.0700   90.7034    8.7387 C.3     1  UNL1        0.0316
     14 C          60.5244   89.3256    8.5064 C.ar    1  UNL1       -0.0117
     15 C          59.8877   88.9828    7.1923 C.ar    1  UNL1        0.0027
     16 C          59.3421   87.6050    6.9600 C.ar    1  UNL1        0.0001
     17 C          59.4332   86.5700    8.0418 C.ar    1  UNL1        0.0301
     18 C          60.0699   86.9128    9.3561 C.ar    1  UNL1        0.1493
     19 F          60.1610   85.8778   10.4379 F       1  UNL1       -0.2035
     20 C          60.6155   88.2906    9.5884 C.ar    1  UNL1        0.0916
     21 C          61.2522   88.6335   10.9025 C.1     1  UNL1        0.1024
     22 N          61.8890   88.9763   12.2166 N.1     1  UNL1       -0.1908
     23 C          61.9216   95.1178    0.4117 C.3     1  UNL1        0.1309
     24 C          62.2419   94.6484   -0.9764 C.ar    1  UNL1        0.0683
     25 C          63.4902   93.8565   -1.2310 C.ar    1  UNL1        0.0168
     26 C          63.8106   93.3871   -2.6192 C.ar    1  UNL1        0.0221
     27 C          62.8827   93.7095   -3.7528 C.ar    1  UNL1        0.1053
     28 C          61.6344   94.5013   -3.4982 C.ar    1  UNL1        0.1176
     29 N          61.3140   94.9708   -2.1100 N.ar    1  UNL1       -0.2461
     30 N          63.2030   93.2401   -5.1409 N.ar    1  UNL1       -0.1871
     31 C          62.6913   93.8430   -6.4156 C.ar    1  UNL1        0.2259
     32 N          63.2634   93.0609   -7.5607 N.ar    1  UNL1       -0.1045
     33 N          64.1286   91.9746   -6.9936 N.ar    1  UNL1       -0.0222
     34 N          64.0913   92.0854   -5.4982 N.ar    1  UNL1       -0.0384
@<TRIPOS>BOND
     1    13    14    1
     2    14    15   ar
     3     1    15    1
     4     1     2    1
     5     2     3    1
     6     3     4    1
     7     4     5    1
     8     5     6    1
     9     6     7   am
    10     7     8    2
    11     7    23    1
    12    23    24    1
    13    24    25   ar
    14    25    26   ar
    15    26    27   ar
    16    27    30    1
    17    30    31   ar
    18    31    32   ar
    19    32    33   ar
    20    33    34   ar
    21    27    28   ar
    22    28    29   ar
    23     6     9    1
    24    10     9    1
    25    10    11    1
    26    11    12    1
    27    15    16   ar
    28    16    17   ar
    29    17    18   ar
    30    18    19    1
    31    18    20   ar
    32    20    21    1
    33    21    22    3
    34    20    14   ar
    35    12     1    1
    36    10     3    1
    37    29    24   ar
    38    34    30   ar
@<TRIPOS>MOLECULE
*****
 34 38 0 0 0
SMALL
GASTEIGER

@<TRIPOS>ATOM
      1 C          63.6942   94.8832   -2.4124 C.3     1  UNL1        0.1531
      2 C          62.7301   93.7632   -2.1556 C.3     1  UNL1        0.1067
      3 N          61.9613   93.7158   -0.8686 N.3     1  UNL1       -0.2665
      4 C          60.9971   92.5957   -0.6117 C.3     1  UNL1        0.0940
      5 C          60.2283   92.5483    0.6754 C.3     1  UNL1        0.1107
      6 N          60.4236   93.6209    1.7057 N.am    1  UNL1       -0.2763
      7 C          59.6547   93.5734    2.9928 C.2     1  UNL1        0.2318
      8 O          59.8500   94.6460    4.0231 O.2     1  UNL1       -0.2744
      9 C          61.3877   94.7409    1.4489 C.3     1  UNL1        0.1119
     10 C          62.1566   94.7884    0.1617 C.3     1  UNL1        0.1075
     11 C          63.1207   95.9084   -0.0951 C.3     1  UNL1        0.1601
     12 O          63.8895   95.9558   -1.3822 O.3     1  UNL1       -0.3489
     13 C          64.0736   92.3829   -4.0263 C.3     1  UNL1        0.0316
     14 C          64.6528   93.6806   -4.5065 C.ar    1  UNL1       -0.0117
     15 C          64.4631   94.9307   -3.6996 C.ar    1  UNL1        0.0027
     16 C          65.0423   96.2284   -4.1798 C.ar    1  UNL1        0.0001
     17 C          65.8111   96.2759   -5.4668 C.ar    1  UNL1        0.0301
     18 C          66.0008   95.0257   -6.2738 C.ar    1  UNL1        0.1493
     19 F          66.7697   95.0733   -7.5608 F       1  UNL1       -0.2035
     20 C          65.4217   93.7281   -5.7936 C.ar    1  UNL1        0.0916
     21 C          65.6113   92.4779   -6.6005 C.1     1  UNL1        0.1024
     22 N          65.8010   91.2278   -7.4073 N.1     1  UNL1       -0.1908
     23 C          58.6906   92.4534    3.2496 C.3     1  UNL1        0.1309
     24 C          58.9249   91.5091    4.3912 C.ar    1  UNL1        0.0683
     25 C          60.3244   91.1298    4.7757 C.ar    1  UNL1        0.0168
     26 C          60.5587   90.1855    5.9173 C.ar    1  UNL1        0.0221
     27 C          59.3937   89.6204    6.6745 C.ar    1  UNL1        0.1053
     28 C          57.9943   89.9996    6.2900 C.ar    1  UNL1        0.1176
     29 N          57.7599   90.9440    5.1484 N.ar    1  UNL1       -0.2461
     30 N          59.6280   88.6761    7.8161 N.ar    1  UNL1       -0.1871
     31 C          59.3809   87.1966    7.8015 C.ar    1  UNL1        0.2259
     32 N          59.7508   86.6515    9.1492 N.ar    1  UNL1       -0.1045
     33 N          60.2265   87.7942    9.9967 N.ar    1  UNL1       -0.0222
     34 N          60.1507   89.0453    9.1728 N.ar    1  UNL1       -0.0384
@<TRIPOS>BOND
     1    13    14    1
     2    14    15   ar
     3     1    15    1
     4     1     2    1
     5     2     3    1
     6     3     4    1
     7     4     5    1
     8     5     6    1
     9     6     7   am
    10     7     8    2
    11     7    23    1
    12    23    24    1
    13    24    25   ar
    14    25    26   ar
    15    26    27   ar
    16    27    30    1
    17    30    31   ar
    18    31    32   ar
    19    32    33   ar
    20    33    34   ar
    21    27    28   ar
    22    28    29   ar
    23     6     9    1
    24    10     9    1
    25    10    11    1
    26    11    12    1
    27    15    16   ar
    28    16    17   ar
    29    17    18   ar
    30    18    19    1
    31    18    20   ar
    32    20    21    1
    33    21    22    3
    34    20    14   ar
    35    12     1    1
    36    10     3    1
    37    29    24   ar
    38    34    30   ar
