@<TRIPOS>MOLECULE
*****
 34 37 0 0 0
SMALL
GASTEIGER

@<TRIPOS>ATOM
      1 C          63.9090   91.2241   13.2175 C.ar    1  UNL1        0.1432
      2 C          64.9775   92.0836   13.8254 C.ar    1  UNL1        0.0384
      3 C          65.8734   92.9022   12.9438 C.ar    1  UNL1        0.0215
      4 C          65.7008   92.8615   11.4543 C.ar    1  UNL1        0.1061
      5 C          64.6322   92.0020   10.8465 C.ar    1  UNL1        0.0259
      6 C          63.7363   91.1833   11.7280 C.ar    1  UNL1        0.0888
      7 C          62.6677   90.3239   11.1201 C.2     1  UNL1        0.2525
      8 O          61.6320   90.9362   10.2244 O.2     1  UNL1       -0.2698
      9 N          62.6350   88.8521   11.4078 N.am    1  UNL1       -0.2660
     10 C          63.5986   88.1024   12.2792 C.3     1  UNL1        0.1236
     11 C          63.1920   86.6586   12.2845 C.ar    1  UNL1        0.0338
     12 C          63.5362   85.3029   12.8264 C.ar    1  UNL1        0.0991
     13 N          62.5341   84.3223   12.2932 N.ar    1  UNL1       -0.2265
     14 N          61.5704   85.0721   11.4217 N.ar    1  UNL1       -0.1679
     15 C          61.9770   86.5159   11.4164 C.ar    1  UNL1        0.0981
     16 C          61.6328   87.8716   10.8745 C.3     1  UNL1        0.1414
     17 C          62.5013   82.8506   12.5808 C.ar    1  UNL1        0.1102
     18 C          62.8805   81.8689   11.5120 C.ar    1  UNL1        0.0214
     19 C          62.8477   80.3970   11.7997 C.ar    1  UNL1        0.0017
     20 C          62.4357   79.9070   13.1562 C.ar    1  UNL1        0.0024
     21 C          62.0565   80.8888   14.2250 C.ar    1  UNL1        0.0312
     22 C          62.0893   82.3605   13.9374 C.ar    1  UNL1        0.1577
     23 F          61.7100   83.3423   15.0062 F       1  UNL1       -0.2026
     24 S          66.5967   93.6801   10.5728 S.O2    1  UNL1        0.0105
     25 C          67.4926   94.4988    9.6913 C.3     1  UNL1        0.1816
     26 O          67.6370   92.6009   10.6278 O.2     1  UNL1       -0.1686
     27 O          65.5563   94.7594   10.5178 O.2     1  UNL1       -0.1686
     28 O          63.0131   90.4055   14.0991 O.3     1  UNL1       -0.4702
     29 C          63.7668   91.1188   16.4809 C.3     1  UNL1        0.0566
     30 C          63.4546   90.0409   15.4855 C.3     1  UNL1        0.2599
     31 C          63.5839   88.5986   15.8764 C.3     1  UNL1        0.4340
     32 F          63.7132   87.1563   16.2674 F       1  UNL1       -0.1664
     33 F          62.3894   88.7346   16.7735 F       1  UNL1       -0.1664
     34 F          64.7785   88.4625   14.9794 F       1  UNL1       -0.1664
@<TRIPOS>BOND
     1    30    29    1
     2    30    28    1
     3    28     1    1
     4     1     2   ar
     5     2     3   ar
     6     3     4   ar
     7     4    24    1
     8    24    25    1
     9    24    26    2
    10    24    27    2
    11     4     5   ar
    12     5     6   ar
    13     6     7    1
    14     7     8    2
    15     7     9   am
    16     9    10    1
    17    10    11    1
    18    11    12   ar
    19    12    13   ar
    20    13    17    1
    21    17    18   ar
    22    18    19   ar
    23    19    20   ar
    24    20    21   ar
    25    21    22   ar
    26    22    23    1
    27    13    14   ar
    28    14    15   ar
    29    15    16    1
    30    30    31    1
    31    31    32    1
    32    31    33    1
    33    31    34    1
    34     6     1   ar
    35    16     9    1
    36    15    11   ar
    37    22    17   ar
@<TRIPOS>MOLECULE
*****
 34 37 0 0 0
SMALL
GASTEIGER

@<TRIPOS>ATOM
      1 C          64.4783   91.6081   13.5163 C.ar    1  UNL1        0.1432
      2 C          65.3573   92.4585   12.6478 C.ar    1  UNL1        0.0384
      3 C          66.6742   92.9526   13.1690 C.ar    1  UNL1        0.0215
      4 C          67.1122   92.5963   14.5587 C.ar    1  UNL1        0.1061
      5 C          66.2331   91.7460   15.4272 C.ar    1  UNL1        0.0259
      6 C          64.9162   91.2518   14.9060 C.ar    1  UNL1        0.0888
      7 C          64.0373   90.4015   15.7746 C.2     1  UNL1        0.2525
      8 O          63.3829   90.9937   16.9874 O.2     1  UNL1       -0.2698
      9 N          63.8128   88.9589   15.4303 N.am    1  UNL1       -0.2660
     10 C          64.3970   88.2315   14.2557 C.3     1  UNL1        0.1236
     11 C          63.9099   86.8135   14.2997 C.ar    1  UNL1        0.0338
     12 C          63.9699   85.4876   13.6009 C.ar    1  UNL1        0.0991
     13 N          63.1217   84.5191   14.3707 N.ar    1  UNL1       -0.2265
     14 N          62.5375   85.2465   15.5453 N.ar    1  UNL1       -0.1679
     15 C          63.0246   86.6645   15.5014 C.ar    1  UNL1        0.0981
     16 C          62.9646   87.9905   16.2001 C.3     1  UNL1        0.1414
     17 C          62.8971   83.0765   14.0265 C.ar    1  UNL1        0.1102
     18 C          61.7205   82.3432   14.5989 C.ar    1  UNL1        0.0214
     19 C          61.4959   80.9006   14.2546 C.ar    1  UNL1        0.0017
     20 C          62.4480   80.1913   13.3379 C.ar    1  UNL1        0.0024
     21 C          63.6248   80.9247   12.7655 C.ar    1  UNL1        0.0312
     22 C          63.8493   82.3672   13.1097 C.ar    1  UNL1        0.1577
     23 F          65.0260   83.1005   12.5373 F       1  UNL1       -0.2026
     24 S          68.4291   93.0905   15.0798 S.O2    1  UNL1        0.0105
     25 C          69.7460   93.5846   15.6010 C.3     1  UNL1        0.1816
     26 O          69.1341   92.4077   13.9455 O.2     1  UNL1       -0.1686
     27 O          67.7239   93.7732   16.2142 O.2     1  UNL1       -0.1686
     28 O          63.1614   91.1140   12.9951 O.3     1  UNL1       -0.4702
     29 C          63.5453   91.4974   10.4543 C.3     1  UNL1        0.0566
     30 C          63.0471   90.6371   11.5775 C.3     1  UNL1        0.2599
     31 C          62.4345   89.2999   11.2833 C.3     1  UNL1        0.4340
     32 F          61.8219   87.9627   10.9889 F       1  UNL1       -0.1664
     33 F          63.0667   89.3096    9.9230 F       1  UNL1       -0.1664
     34 F          61.8023   89.2901   12.6435 F       1  UNL1       -0.1664
@<TRIPOS>BOND
     1    30    29    1
     2    30    28    1
     3    28     1    1
     4     1     2   ar
     5     2     3   ar
     6     3     4   ar
     7     4    24    1
     8    24    25    1
     9    24    26    2
    10    24    27    2
    11     4     5   ar
    12     5     6   ar
    13     6     7    1
    14     7     8    2
    15     7     9   am
    16     9    10    1
    17    10    11    1
    18    11    12   ar
    19    12    13   ar
    20    13    17    1
    21    17    18   ar
    22    18    19   ar
    23    19    20   ar
    24    20    21   ar
    25    21    22   ar
    26    22    23    1
    27    13    14   ar
    28    14    15   ar
    29    15    16    1
    30    30    31    1
    31    31    32    1
    32    31    33    1
    33    31    34    1
    34     6     1   ar
    35    16     9    1
    36    15    11   ar
    37    22    17   ar
@<TRIPOS>MOLECULE
*****
 34 37 0 0 0
SMALL
GASTEIGER

@<TRIPOS>ATOM
      1 C          63.4124   90.1664   13.4084 C.ar    1  UNL1        0.1432
      2 C          63.8824   91.3298   12.5864 C.ar    1  UNL1        0.0384
      3 C          65.1682   92.0210   12.9313 C.ar    1  UNL1        0.0215
      4 C          65.9840   91.5490   14.0981 C.ar    1  UNL1        0.1061
      5 C          65.5140   90.3856   14.9202 C.ar    1  UNL1        0.0259
      6 C          64.2282   89.6943   14.5753 C.ar    1  UNL1        0.0888
      7 C          63.7582   88.5310   15.3974 C.2     1  UNL1        0.2525
      8 O          63.4371   88.7204   16.8503 O.2     1  UNL1       -0.2698
      9 N          63.6094   87.1782   14.7665 N.am    1  UNL1       -0.2660
     10 C          63.8914   86.8381   13.3331 C.3     1  UNL1        0.1236
     11 C          63.6087   85.3778   13.1390 C.ar    1  UNL1        0.0338
     12 C          63.6083   84.2650   12.1332 C.ar    1  UNL1        0.0991
     13 N          63.1513   83.0149   12.8249 N.ar    1  UNL1       -0.2265
     14 N          62.8693   83.3552   14.2584 N.ar    1  UNL1       -0.1679
     15 C          63.1520   84.8155   14.4525 C.ar    1  UNL1        0.0981
     16 C          63.1524   85.9282   15.4584 C.3     1  UNL1        0.1414
     17 C          63.0024   81.6623   12.1941 C.ar    1  UNL1        0.1102
     18 C          62.5792   80.4888   13.0270 C.ar    1  UNL1        0.0214
     19 C          62.4303   79.1360   12.3962 C.ar    1  UNL1        0.0017
     20 C          62.7047   78.9568   10.9325 C.ar    1  UNL1        0.0024
     21 C          63.1280   80.1304   10.0995 C.ar    1  UNL1        0.0312
     22 C          63.2769   81.4830   10.7303 C.ar    1  UNL1        0.1577
     23 F          63.7002   82.6565    9.8975 F       1  UNL1       -0.2026
     24 S          67.2698   92.2402   14.4430 S.O2    1  UNL1        0.0105
     25 C          68.5556   92.9315   14.7878 C.3     1  UNL1        0.1816
     26 O          66.7659   92.4832   15.8347 O.2     1  UNL1       -0.1686
     27 O          67.7737   91.9972   13.0511 O.2     1  UNL1       -0.1686
     28 O          62.1266   89.4752   13.0636 O.3     1  UNL1       -0.4702
     29 C          60.5177   90.5426   11.3252 C.3     1  UNL1        0.0566
     30 C          61.5875   89.5478   11.6657 C.3     1  UNL1        0.2599
     31 C          62.1182   88.6257   10.6084 C.3     1  UNL1        0.4340
     32 F          62.6490   87.7037    9.5510 F       1  UNL1       -0.1664
     33 F          62.9089   89.7562   10.0193 F       1  UNL1       -0.1664
     34 F          61.3276   87.4952   11.1974 F       1  UNL1       -0.1664
@<TRIPOS>BOND
     1    30    29    1
     2    30    28    1
     3    28     1    1
     4     1     2   ar
     5     2     3   ar
     6     3     4   ar
     7     4    24    1
     8    24    25    1
     9    24    26    2
    10    24    27    2
    11     4     5   ar
    12     5     6   ar
    13     6     7    1
    14     7     8    2
    15     7     9   am
    16     9    10    1
    17    10    11    1
    18    11    12   ar
    19    12    13   ar
    20    13    17    1
    21    17    18   ar
    22    18    19   ar
    23    19    20   ar
    24    20    21   ar
    25    21    22   ar
    26    22    23    1
    27    13    14   ar
    28    14    15   ar
    29    15    16    1
    30    30    31    1
    31    31    32    1
    32    31    33    1
    33    31    34    1
    34     6     1   ar
    35    16     9    1
    36    15    11   ar
    37    22    17   ar
@<TRIPOS>MOLECULE
*****
 34 37 0 0 0
SMALL
GASTEIGER

@<TRIPOS>ATOM
      1 C          65.5516   92.3152   11.9703 C.ar    1  UNL1        0.1432
      2 C          66.4710   93.1047   12.8541 C.ar    1  UNL1        0.0384
      3 C          66.2702   93.0994   14.3406 C.ar    1  UNL1        0.0215
      4 C          65.1500   92.3045   14.9433 C.ar    1  UNL1        0.1061
      5 C          64.2306   91.5149   14.0594 C.ar    1  UNL1        0.0259
      6 C          64.4313   91.5202   12.5729 C.ar    1  UNL1        0.0888
      7 C          63.5119   90.7306   11.6892 C.2     1  UNL1        0.2525
      8 O          62.7819   91.4100   10.5686 O.2     1  UNL1       -0.2698
      9 N          63.3223   89.2615   11.9259 N.am    1  UNL1       -0.2660
     10 C          63.9814   88.4495   13.0012 C.3     1  UNL1        0.1236
     11 C          63.5068   87.0328   12.8687 C.ar    1  UNL1        0.0338
     12 C          63.6208   85.6553   13.4515 C.ar    1  UNL1        0.0991
     13 N          62.7390   84.7403   12.6544 N.ar    1  UNL1       -0.2265
     14 N          62.0799   85.5524   11.5790 N.ar    1  UNL1       -0.1679
     15 C          62.5545   86.9692   11.7115 C.ar    1  UNL1        0.0981
     16 C          62.4405   88.3466   11.1288 C.3     1  UNL1        0.1414
     17 C          62.5494   83.2714   12.8911 C.ar    1  UNL1        0.1102
     18 C          61.9611   82.7898   14.1842 C.ar    1  UNL1        0.0214
     19 C          61.7716   81.3207   14.4209 C.ar    1  UNL1        0.0017
     20 C          62.1703   80.3333   13.3646 C.ar    1  UNL1        0.0024
     21 C          62.7587   80.8149   12.0714 C.ar    1  UNL1        0.0312
     22 C          62.9482   82.2838   11.8347 C.ar    1  UNL1        0.1577
     23 F          63.5365   82.7654   10.5417 F       1  UNL1       -0.2026
     24 S          64.9493   92.2991   16.4298 S.O2    1  UNL1        0.0105
     25 C          64.7486   92.2938   17.9163 C.3     1  UNL1        0.1816
     26 O          63.5260   91.8671   16.2361 O.2     1  UNL1       -0.1686
     27 O          66.3727   92.7312   16.6235 O.2     1  UNL1       -0.1686
     28 O          65.7523   92.3205   10.4838 O.3     1  UNL1       -0.4702
     29 C          66.4433   94.7422    9.8451 C.3     1  UNL1        0.0566
     30 C          66.7330   93.2705    9.8628 C.3     1  UNL1        0.2599
     31 C          68.0034   92.7489    9.2596 C.3     1  UNL1        0.4340
     32 F          69.2738   92.2271    8.6564 F       1  UNL1       -0.1664
     33 F          68.0529   91.6679   10.2985 F       1  UNL1       -0.1664
     34 F          67.9540   93.8297    8.2207 F       1  UNL1       -0.1664
@<TRIPOS>BOND
     1    30    29    1
     2    30    28    1
     3    28     1    1
     4     1     2   ar
     5     2     3   ar
     6     3     4   ar
     7     4    24    1
     8    24    25    1
     9    24    26    2
    10    24    27    2
    11     4     5   ar
    12     5     6   ar
    13     6     7    1
    14     7     8    2
    15     7     9   am
    16     9    10    1
    17    10    11    1
    18    11    12   ar
    19    12    13   ar
    20    13    17    1
    21    17    18   ar
    22    18    19   ar
    23    19    20   ar
    24    20    21   ar
    25    21    22   ar
    26    22    23    1
    27    13    14   ar
    28    14    15   ar
    29    15    16    1
    30    30    31    1
    31    31    32    1
    32    31    33    1
    33    31    34    1
    34     6     1   ar
    35    16     9    1
    36    15    11   ar
    37    22    17   ar
@<TRIPOS>MOLECULE
*****
 34 37 0 0 0
SMALL
GASTEIGER

@<TRIPOS>ATOM
      1 C          62.9474   90.6988   11.8082 C.ar    1  UNL1        0.1432
      2 C          62.8068   91.5605   10.5886 C.ar    1  UNL1        0.0384
      3 C          63.9360   92.4532   10.1666 C.ar    1  UNL1        0.0215
      4 C          65.2059   92.4842   10.9644 C.ar    1  UNL1        0.1061
      5 C          65.3465   91.6224   12.1841 C.ar    1  UNL1        0.0259
      6 C          64.2173   90.7297   12.6060 C.ar    1  UNL1        0.0888
      7 C          64.3581   89.8680   13.8257 C.2     1  UNL1        0.2525
      8 O          64.8387   90.4657   15.1148 O.2     1  UNL1       -0.2698
      9 N          64.0182   88.4087   13.7563 N.am    1  UNL1       -0.2660
     10 C          63.5282   87.6743   12.5437 C.3     1  UNL1        0.1236
     11 C          63.3158   86.2393   12.9253 C.ar    1  UNL1        0.0338
     12 C          62.8817   84.8985   12.4117 C.ar    1  UNL1        0.0991
     13 N          62.9721   83.9173   13.5428 N.ar    1  UNL1       -0.2265
     14 N          63.4622   84.6518   14.7554 N.ar    1  UNL1       -0.1679
     15 C          63.6746   86.0868   14.3738 C.ar    1  UNL1        0.0981
     16 C          64.1087   87.4276   14.8874 C.3     1  UNL1        0.1414
     17 C          62.6323   82.4580   13.4734 C.ar    1  UNL1        0.1102
     18 C          61.5419   81.8999   14.3391 C.ar    1  UNL1        0.0214
     19 C          61.2019   80.4405   14.2698 C.ar    1  UNL1        0.0017
     20 C          61.9525   79.5393   13.3347 C.ar    1  UNL1        0.0024
     21 C          63.0429   80.0975   12.4689 C.ar    1  UNL1        0.0312
     22 C          63.3828   81.5567   12.5382 C.ar    1  UNL1        0.1577
     23 F          64.4732   82.1149   11.6725 F       1  UNL1       -0.2026
     24 S          66.3350   93.3769   10.5424 S.O2    1  UNL1        0.0105
     25 C          67.4642   94.2696   10.1205 C.3     1  UNL1        0.1816
     26 O          65.4423   94.5738   10.6858 O.2     1  UNL1       -0.1686
     27 O          67.2277   92.1799   10.3990 O.2     1  UNL1       -0.1686
     28 O          61.8183   89.8061   12.2302 O.3     1  UNL1       -0.4702
     29 C          59.4526   90.5091   11.4183 C.3     1  UNL1        0.0566
     30 C          60.6433   89.6021   11.3204 C.3     1  UNL1        0.2599
     31 C          60.6590   88.4911   10.3127 C.3     1  UNL1        0.4340
     32 F          60.6748   87.3802    9.3050 F       1  UNL1       -0.1664
     33 F          60.9099   89.4866    9.2190 F       1  UNL1       -0.1664
     34 F          60.4082   87.4955   11.4063 F       1  UNL1       -0.1664
@<TRIPOS>BOND
     1    30    29    1
     2    30    28    1
     3    28     1    1
     4     1     2   ar
     5     2     3   ar
     6     3     4   ar
     7     4    24    1
     8    24    25    1
     9    24    26    2
    10    24    27    2
    11     4     5   ar
    12     5     6   ar
    13     6     7    1
    14     7     8    2
    15     7     9   am
    16     9    10    1
    17    10    11    1
    18    11    12   ar
    19    12    13   ar
    20    13    17    1
    21    17    18   ar
    22    18    19   ar
    23    19    20   ar
    24    20    21   ar
    25    21    22   ar
    26    22    23    1
    27    13    14   ar
    28    14    15   ar
    29    15    16    1
    30    30    31    1
    31    31    32    1
    32    31    33    1
    33    31    34    1
    34     6     1   ar
    35    16     9    1
    36    15    11   ar
    37    22    17   ar
@<TRIPOS>MOLECULE
*****
 34 37 0 0 0
SMALL
GASTEIGER

@<TRIPOS>ATOM
      1 C          63.8183   85.2265   13.4371 C.ar    1  UNL1        0.1432
      2 C          64.5360   85.8245   14.6106 C.ar    1  UNL1        0.0384
      3 C          64.5663   87.3131   14.7922 C.ar    1  UNL1        0.0215
      4 C          63.8787   88.2039   13.8003 C.ar    1  UNL1        0.1061
      5 C          63.1609   87.6058   12.6267 C.ar    1  UNL1        0.0259
      6 C          63.1307   86.1171   12.4451 C.ar    1  UNL1        0.0888
      7 C          62.4129   85.5192   11.2716 C.2     1  UNL1        0.2525
      8 O          62.3980   84.0316   11.0800 O.2     1  UNL1       -0.2698
      9 N          61.7100   86.4089   10.2895 N.am    1  UNL1       -0.2660
     10 C          61.6391   87.9060   10.3499 C.3     1  UNL1        0.1236
     11 C          60.8399   88.3800    9.1724 C.ar    1  UNL1        0.0338
     12 C          60.3021   89.5982    8.4820 C.ar    1  UNL1        0.0991
     13 N          59.5467   89.1471    7.2671 N.ar    1  UNL1       -0.2265
     14 N          59.6177   87.6499    7.2067 N.ar    1  UNL1       -0.1679
     15 C          60.4169   87.1759    8.3843 C.ar    1  UNL1        0.0981
     16 C          60.9547   85.9577    9.0747 C.3     1  UNL1        0.1414
     17 C          58.8439   90.0367    6.2851 C.ar    1  UNL1        0.1102
     18 C          57.3472   90.0127    6.1890 C.ar    1  UNL1        0.0214
     19 C          56.6442   90.9024    5.2070 C.ar    1  UNL1        0.0017
     20 C          57.4380   91.8161    4.3210 C.ar    1  UNL1        0.0024
     21 C          58.9349   91.8401    4.4170 C.ar    1  UNL1        0.0312
     22 C          59.6377   90.9504    5.3990 C.ar    1  UNL1        0.1577
     23 F          61.1344   90.9744    5.4951 F       1  UNL1       -0.2026
     24 S          63.9090   89.6925   13.9819 S.O2    1  UNL1        0.0105
     25 C          63.9392   91.1812   14.1635 C.3     1  UNL1        0.1816
     26 O          65.2829   89.5922   14.5755 O.2     1  UNL1       -0.1686
     27 O          62.5350   89.7928   13.3884 O.2     1  UNL1       -0.1686
     28 O          63.7881   83.7378   13.2555 O.3     1  UNL1       -0.4702
     29 C          62.2175   83.4919   15.3105 C.3     1  UNL1        0.0566
     30 C          62.8802   82.8971   14.1034 C.3     1  UNL1        0.2599
     31 C          62.6351   81.4615   13.7442 C.3     1  UNL1        0.4340
     32 F          62.3901   80.0260   13.3850 F       1  UNL1       -0.1664
     33 F          63.9979   81.3845   13.1222 F       1  UNL1       -0.1664
     34 F          61.2723   81.5385   14.3662 F       1  UNL1       -0.1664
@<TRIPOS>BOND
     1    30    29    1
     2    30    28    1
     3    28     1    1
     4     1     2   ar
     5     2     3   ar
     6     3     4   ar
     7     4    24    1
     8    24    25    1
     9    24    26    2
    10    24    27    2
    11     4     5   ar
    12     5     6   ar
    13     6     7    1
    14     7     8    2
    15     7     9   am
    16     9    10    1
    17    10    11    1
    18    11    12   ar
    19    12    13   ar
    20    13    17    1
    21    17    18   ar
    22    18    19   ar
    23    19    20   ar
    24    20    21   ar
    25    21    22   ar
    26    22    23    1
    27    13    14   ar
    28    14    15   ar
    29    15    16    1
    30    30    31    1
    31    31    32    1
    32    31    33    1
    33    31    34    1
    34     6     1   ar
    35    16     9    1
    36    15    11   ar
    37    22    17   ar
@<TRIPOS>MOLECULE
*****
 34 37 0 0 0
SMALL
GASTEIGER

@<TRIPOS>ATOM
      1 C          60.2218   87.1822    8.9460 C.ar    1  UNL1        0.1432
      2 C          60.2072   86.8756    7.4778 C.ar    1  UNL1        0.0384
      3 C          59.8579   87.9497    6.4907 C.ar    1  UNL1        0.0215
      4 C          59.5232   89.3304    6.9719 C.ar    1  UNL1        0.1061
      5 C          59.5379   89.6370    8.4402 C.ar    1  UNL1        0.0259
      6 C          59.8872   88.5630    9.4273 C.ar    1  UNL1        0.0888
      7 C          59.9018   88.8697   10.8955 C.2     1  UNL1        0.2525
      8 O          58.6901   88.5863   11.7330 O.2     1  UNL1       -0.2698
      9 N          61.1282   89.4597   11.5262 N.am    1  UNL1       -0.2660
     10 C          62.4082   89.7956   10.8200 C.3     1  UNL1        0.1236
     11 C          63.3609   90.3610   11.8313 C.ar    1  UNL1        0.0338
     12 C          64.7408   90.9180   12.0198 C.ar    1  UNL1        0.0991
     13 N          64.9026   91.2757   13.4676 N.ar    1  UNL1       -0.2265
     14 N          63.6225   90.9398   14.1738 N.ar    1  UNL1       -0.1679
     15 C          62.6697   90.3744   13.1625 C.ar    1  UNL1        0.0981
     16 C          61.2898   89.8174   12.9740 C.3     1  UNL1        0.1414
     17 C          66.1288   91.8657   14.0983 C.ar    1  UNL1        0.1102
     18 C          67.4089   91.9438   13.3202 C.ar    1  UNL1        0.0214
     19 C          68.6353   92.5339   13.9510 C.ar    1  UNL1        0.0017
     20 C          68.5816   93.0458   15.3599 C.ar    1  UNL1        0.0024
     21 C          67.3015   92.9677   16.1380 C.ar    1  UNL1        0.0312
     22 C          66.0752   92.3777   15.5073 C.ar    1  UNL1        0.1577
     23 F          64.7952   92.2996   16.2854 F       1  UNL1       -0.2026
     24 S          59.1739   90.4045    5.9848 S.O2    1  UNL1        0.0105
     25 C          58.8246   91.4786    4.9977 C.3     1  UNL1        0.1816
     26 O          57.7225   90.2500    6.3303 O.2     1  UNL1       -0.1686
     27 O          60.6254   90.5589    5.6393 O.2     1  UNL1       -0.1686
     28 O          60.5711   86.1081    9.9331 O.3     1  UNL1       -0.4702
     29 C          62.8982   85.5690    8.9114 C.3     1  UNL1        0.0566
     30 C          61.9997   85.6849   10.1068 C.3     1  UNL1        0.2599
     31 C          62.5296   85.3778   11.4761 C.3     1  UNL1        0.4340
     32 F          63.0595   85.0705   12.8453 F       1  UNL1       -0.1664
     33 F          62.2348   83.9224   11.2637 F       1  UNL1       -0.1664
     34 F          62.8244   86.8330   11.6885 F       1  UNL1       -0.1664
@<TRIPOS>BOND
     1    30    29    1
     2    30    28    1
     3    28     1    1
     4     1     2   ar
     5     2     3   ar
     6     3     4   ar
     7     4    24    1
     8    24    25    1
     9    24    26    2
    10    24    27    2
    11     4     5   ar
    12     5     6   ar
    13     6     7    1
    14     7     8    2
    15     7     9   am
    16     9    10    1
    17    10    11    1
    18    11    12   ar
    19    12    13   ar
    20    13    17    1
    21    17    18   ar
    22    18    19   ar
    23    19    20   ar
    24    20    21   ar
    25    21    22   ar
    26    22    23    1
    27    13    14   ar
    28    14    15   ar
    29    15    16    1
    30    30    31    1
    31    31    32    1
    32    31    33    1
    33    31    34    1
    34     6     1   ar
    35    16     9    1
    36    15    11   ar
    37    22    17   ar
@<TRIPOS>MOLECULE
*****
 34 37 0 0 0
SMALL
GASTEIGER

@<TRIPOS>ATOM
      1 C          64.2884   90.3770   13.1497 C.ar    1  UNL1        0.1432
      2 C          63.9266   91.5210   12.2496 C.ar    1  UNL1        0.0384
      3 C          62.8344   91.3600   11.2341 C.ar    1  UNL1        0.0215
      4 C          62.1040   90.0549   11.1188 C.ar    1  UNL1        0.1061
      5 C          62.4659   88.9109   12.0190 C.ar    1  UNL1        0.0259
      6 C          63.5580   89.0719   13.0344 C.ar    1  UNL1        0.0888
      7 C          63.9198   87.9278   13.9345 C.2     1  UNL1        0.2525
      8 O          64.4719   88.1959   15.3032 O.2     1  UNL1       -0.2698
      9 N          63.7295   86.5156   13.4660 N.am    1  UNL1       -0.2660
     10 C          63.1907   86.0947   12.1309 C.3     1  UNL1        0.1236
     11 C          63.1728   84.5954   12.0901 C.ar    1  UNL1        0.0338
     12 C          62.8287   83.4086   11.2397 C.ar    1  UNL1        0.0991
     13 N          63.1437   82.1694   12.0240 N.ar    1  UNL1       -0.2265
     14 N          63.6825   82.5903   13.3592 N.ar    1  UNL1       -0.1679
     15 C          63.7004   84.0897   13.4000 C.ar    1  UNL1        0.0981
     16 C          64.0445   85.2765   14.2504 C.3     1  UNL1        0.1414
     17 C          62.9533   80.7573   11.5555 C.ar    1  UNL1        0.1102
     18 C          63.0689   80.4291   10.0964 C.ar    1  UNL1        0.0214
     19 C          62.8786   79.0169    9.6278 C.ar    1  UNL1        0.0017
     20 C          62.5727   77.9329   10.6184 C.ar    1  UNL1        0.0024
     21 C          62.4571   78.2610   12.0776 C.ar    1  UNL1        0.0312
     22 C          62.6474   79.6731   12.5461 C.ar    1  UNL1        0.1577
     23 F          62.5318   80.0013   14.0052 F       1  UNL1       -0.2026
     24 S          61.0118   89.8939   10.1033 S.O2    1  UNL1        0.0105
     25 C          59.9196   89.7329    9.0878 C.3     1  UNL1        0.1816
     26 O          61.7922   88.7996    9.4374 O.2     1  UNL1       -0.1686
     27 O          60.2314   90.9883   10.7692 O.2     1  UNL1       -0.1686
     28 O          65.3806   90.5380   14.1652 O.3     1  UNL1       -0.4702
     29 C          64.1125   91.5677   16.1855 C.3     1  UNL1        0.0566
     30 C          65.2671   91.5902   15.2283 C.3     1  UNL1        0.2599
     31 C          66.3083   92.6647   15.3340 C.3     1  UNL1        0.4340
     32 F          67.3495   93.7393   15.4398 F       1  UNL1       -0.1664
     33 F          66.0429   92.7771   16.8061 F       1  UNL1       -0.1664
     34 F          66.5738   92.5525   13.8620 F       1  UNL1       -0.1664
@<TRIPOS>BOND
     1    30    29    1
     2    30    28    1
     3    28     1    1
     4     1     2   ar
     5     2     3   ar
     6     3     4   ar
     7     4    24    1
     8    24    25    1
     9    24    26    2
    10    24    27    2
    11     4     5   ar
    12     5     6   ar
    13     6     7    1
    14     7     8    2
    15     7     9   am
    16     9    10    1
    17    10    11    1
    18    11    12   ar
    19    12    13   ar
    20    13    17    1
    21    17    18   ar
    22    18    19   ar
    23    19    20   ar
    24    20    21   ar
    25    21    22   ar
    26    22    23    1
    27    13    14   ar
    28    14    15   ar
    29    15    16    1
    30    30    31    1
    31    31    32    1
    32    31    33    1
    33    31    34    1
    34     6     1   ar
    35    16     9    1
    36    15    11   ar
    37    22    17   ar
