@<TRIPOS>MOLECULE
*****
 26 28 0 0 0
SMALL
GASTEIGER

@<TRIPOS>ATOM
      1 C          62.6022   86.3665   10.9115 C.3     1  UNL1        0.0564
      2 C          64.2657   89.9544   14.2818 C.3     1  UNL1        0.0310
      3 C          63.9819   88.5204   13.9458 C.ar    1  UNL1       -0.0221
      4 C          64.2460   87.4462   14.9589 C.ar    1  UNL1       -0.0043
      5 C          63.9622   86.0122   14.6229 C.ar    1  UNL1       -0.0006
      6 C          63.4143   85.6522   13.2738 C.ar    1  UNL1       -0.0037
      7 C          63.1501   86.7264   12.2607 C.ar    1  UNL1       -0.0155
      8 C          63.4339   88.1604   12.5967 C.ar    1  UNL1       -0.0079
      9 C          61.8728   87.6761   10.8584 C.ar    1  UNL1       -0.0152
     10 C          60.5888   87.8507   11.6140 C.ar    1  UNL1       -0.0037
     11 C          59.8594   89.1603   11.5609 C.ar    1  UNL1       -0.0003
     12 C          60.4140   90.2954   10.7523 C.ar    1  UNL1       -0.0000
     13 C          61.6980   90.1209    9.9967 C.ar    1  UNL1       -0.0003
     14 C          62.4274   88.8112   10.0498 C.ar    1  UNL1       -0.0037
     15 C          62.0542   86.0066    9.5623 C.ar    1  UNL1       -0.0152
     16 C          60.6181   86.2914    9.2358 C.ar    1  UNL1       -0.0037
     17 C          60.0701   85.9316    7.8866 C.ar    1  UNL1       -0.0003
     18 C          60.9582   85.2870    6.8640 C.ar    1  UNL1       -0.0000
     19 C          62.3942   85.0021    7.1905 C.ar    1  UNL1       -0.0003
     20 C          62.9423   85.3620    8.5397 C.ar    1  UNL1       -0.0037
     21 C          63.3315   85.0568   10.9645 C.3     1  UNL1        0.0136
     22 C          62.5860   83.7957   11.2867 C.3     1  UNL1        0.0178
     23 C          63.3281   82.4987   11.4187 C.3     1  UNL1        0.0652
     24 N          64.8269   82.4948   11.4772 N.3     1  UNL1       -0.3211
     25 H          65.2029   82.8166   10.5853 H       1  UNL1        0.1189
     26 H          65.1574   81.5481   11.6638 H       1  UNL1        0.1189
@<TRIPOS>BOND
     1     2     3    1
     2     3     4   ar
     3     4     5   ar
     4     5     6   ar
     5     6     7   ar
     6     7     1    1
     7     1    21    1
     8    21    22    1
     9    22    23    1
    10    23    24    1
    11     1     9    1
    12     9    10   ar
    13    10    11   ar
    14    11    12   ar
    15    12    13   ar
    16    13    14   ar
    17     1    15    1
    18    15    16   ar
    19    16    17   ar
    20    17    18   ar
    21    18    19   ar
    22    19    20   ar
    23     7     8   ar
    24     8     3   ar
    25    14     9   ar
    26    20    15   ar
    27    24    25    1
    28    24    26    1
@<TRIPOS>MOLECULE
*****
 26 28 0 0 0
SMALL
GASTEIGER

@<TRIPOS>ATOM
      1 C          62.5997   86.3680   10.9101 C.3     1  UNL1        0.0564
      2 C          64.2636   89.9551   14.2812 C.3     1  UNL1        0.0310
      3 C          63.9815   88.5209   13.9442 C.ar    1  UNL1       -0.0221
      4 C          64.2493   87.4462   14.9556 C.ar    1  UNL1       -0.0043
      5 C          63.9673   86.0120   14.6186 C.ar    1  UNL1       -0.0006
      6 C          63.4174   85.6526   13.2701 C.ar    1  UNL1       -0.0037
      7 C          63.1496   86.7274   12.2587 C.ar    1  UNL1       -0.0155
      8 C          63.4317   88.1616   12.5957 C.ar    1  UNL1       -0.0079
      9 C          61.8716   87.6784   10.8579 C.ar    1  UNL1       -0.0152
     10 C          62.4260   88.8128   10.0481 C.ar    1  UNL1       -0.0037
     11 C          61.6979   90.1231    9.9959 C.ar    1  UNL1       -0.0003
     12 C          60.4153   90.2991   10.7535 C.ar    1  UNL1       -0.0000
     13 C          59.8608   89.1648   11.5632 C.ar    1  UNL1       -0.0003
     14 C          60.5889   87.8544   11.6155 C.ar    1  UNL1       -0.0037
     15 C          62.0498   86.0087    9.5616 C.ar    1  UNL1       -0.0152
     16 C          62.9362   85.3635    8.5378 C.ar    1  UNL1       -0.0037
     17 C          62.3863   85.0042    7.1893 C.ar    1  UNL1       -0.0003
     18 C          60.9501   85.2901    6.8645 C.ar    1  UNL1       -0.0000
     19 C          60.0637   85.9353    7.8883 C.ar    1  UNL1       -0.0003
     20 C          60.6136   86.2946    9.2368 C.ar    1  UNL1       -0.0037
     21 C          63.3279   85.0577   10.9623 C.3     1  UNL1        0.0136
     22 C          62.5802   83.7962   11.2782 C.3     1  UNL1        0.0178
     23 C          63.3243   82.5039   11.4400 C.3     1  UNL1        0.0652
     24 N          64.8241   82.5004   11.4677 N.3     1  UNL1       -0.3211
     25 H          65.1816   82.7904   10.5575 H       1  UNL1        0.1189
     26 H          65.1580   81.5604   11.6803 H       1  UNL1        0.1189
@<TRIPOS>BOND
     1     2     3    1
     2     3     4   ar
     3     4     5   ar
     4     5     6   ar
     5     6     7   ar
     6     7     1    1
     7     1    21    1
     8    21    22    1
     9    22    23    1
    10    23    24    1
    11     1     9    1
    12     9    10   ar
    13    10    11   ar
    14    11    12   ar
    15    12    13   ar
    16    13    14   ar
    17     1    15    1
    18    15    16   ar
    19    16    17   ar
    20    17    18   ar
    21    18    19   ar
    22    19    20   ar
    23     7     8   ar
    24     8     3   ar
    25    14     9   ar
    26    20    15   ar
    27    24    25    1
    28    24    26    1
@<TRIPOS>MOLECULE
*****
 26 28 0 0 0
SMALL
GASTEIGER

@<TRIPOS>ATOM
      1 C          62.6470   86.4216   11.0384 C.3     1  UNL1        0.0564
      2 C          58.7726   86.5501    7.5783 C.3     1  UNL1        0.0310
      3 C          60.1660   86.1407    7.9537 C.ar    1  UNL1       -0.0221
      4 C          61.0154   85.3861    6.9745 C.ar    1  UNL1       -0.0043
      5 C          62.4088   84.9767    7.3499 C.ar    1  UNL1       -0.0006
      6 C          62.9527   85.3218    8.7045 C.ar    1  UNL1       -0.0037
      7 C          62.1032   86.0764    9.6837 C.ar    1  UNL1       -0.0155
      8 C          60.7098   86.4859    9.3083 C.ar    1  UNL1       -0.0079
      9 C          61.9337   87.7402   10.9887 C.ar    1  UNL1       -0.0152
     10 C          60.6366   87.9193   11.7205 C.ar    1  UNL1       -0.0037
     11 C          59.9233   89.2379   11.6709 C.ar    1  UNL1       -0.0003
     12 C          60.5070   90.3774   10.8894 C.ar    1  UNL1       -0.0000
     13 C          61.8041   90.1984   10.1576 C.ar    1  UNL1       -0.0003
     14 C          62.5175   88.8797   10.2073 C.ar    1  UNL1       -0.0037
     15 C          63.1908   86.7669   12.3931 C.ar    1  UNL1       -0.0152
     16 C          63.4402   85.6830   13.3997 C.ar    1  UNL1       -0.0037
     17 C          63.9840   86.0282   14.7543 C.ar    1  UNL1       -0.0003
     18 C          64.2785   87.4573   15.1024 C.ar    1  UNL1       -0.0000
     19 C          64.0291   88.5411   14.0959 C.ar    1  UNL1       -0.0003
     20 C          63.4853   88.1959   12.7412 C.ar    1  UNL1       -0.0037
     21 C          63.3603   85.1031   11.0881 C.3     1  UNL1        0.0136
     22 C          62.6040   83.8536   11.4299 C.3     1  UNL1        0.0178
     23 C          63.3157   82.5338   11.4713 C.3     1  UNL1        0.0652
     24 N          64.8050   82.4899   11.6450 N.3     1  UNL1       -0.3211
     25 H          65.2549   82.9008   10.8271 H       1  UNL1        0.1189
     26 H          65.1068   81.5210   11.7483 H       1  UNL1        0.1189
@<TRIPOS>BOND
     1     2     3    1
     2     3     4   ar
     3     4     5   ar
     4     5     6   ar
     5     6     7   ar
     6     7     1    1
     7     1    21    1
     8    21    22    1
     9    22    23    1
    10    23    24    1
    11     1     9    1
    12     9    10   ar
    13    10    11   ar
    14    11    12   ar
    15    12    13   ar
    16    13    14   ar
    17     1    15    1
    18    15    16   ar
    19    16    17   ar
    20    17    18   ar
    21    18    19   ar
    22    19    20   ar
    23     7     8   ar
    24     8     3   ar
    25    14     9   ar
    26    20    15   ar
    27    24    25    1
    28    24    26    1
@<TRIPOS>MOLECULE
*****
 26 28 0 0 0
SMALL
GASTEIGER

@<TRIPOS>ATOM
      1 C          62.4478   86.5704   10.9245 C.3     1  UNL1        0.0564
      2 C          62.7363   84.4923    6.1707 C.3     1  UNL1        0.0310
      3 C          61.9432   85.1816    7.2411 C.ar    1  UNL1       -0.0221
      4 C          60.5014   85.5213    7.0052 C.ar    1  UNL1       -0.0043
      5 C          59.7083   86.2106    8.0756 C.ar    1  UNL1       -0.0006
      6 C          60.3571   86.5603    9.3821 C.ar    1  UNL1       -0.0037
      7 C          61.7989   86.2207    9.6180 C.ar    1  UNL1       -0.0155
      8 C          62.5920   85.5313    8.5476 C.ar    1  UNL1       -0.0079
      9 C          61.7230   87.8836   10.9328 C.ar    1  UNL1       -0.0152
     10 C          62.2457   89.0339   10.1242 C.ar    1  UNL1       -0.0037
     11 C          61.5210   90.3471   10.1326 C.ar    1  UNL1       -0.0003
     12 C          60.2736   90.5102   10.9495 C.ar    1  UNL1       -0.0000
     13 C          59.7509   89.3600   11.7581 C.ar    1  UNL1       -0.0003
     14 C          60.4756   88.0467   11.7498 C.ar    1  UNL1       -0.0037
     15 C          63.0965   86.9201   12.2309 C.ar    1  UNL1       -0.0152
     16 C          63.3952   88.3528   12.5602 C.ar    1  UNL1       -0.0037
     17 C          64.0440   88.7025   13.8666 C.ar    1  UNL1       -0.0003
     18 C          64.3941   87.6197   14.8437 C.ar    1  UNL1       -0.0000
     19 C          64.0955   86.1871   14.5145 C.ar    1  UNL1       -0.0003
     20 C          63.4467   85.8373   13.2080 C.ar    1  UNL1       -0.0037
     21 C          63.1725   85.2571   10.9161 C.3     1  UNL1        0.0136
     22 C          62.4603   84.0048   11.3337 C.3     1  UNL1        0.0178
     23 C          63.2100   82.7083   11.4181 C.3     1  UNL1        0.0652
     24 N          64.7056   82.6979   11.3035 N.3     1  UNL1       -0.3211
     25 H          64.9767   82.9911   10.3650 H       1  UNL1        0.1189
     26 H          65.0535   81.7553   11.4791 H       1  UNL1        0.1189
@<TRIPOS>BOND
     1     2     3    1
     2     3     4   ar
     3     4     5   ar
     4     5     6   ar
     5     6     7   ar
     6     7     1    1
     7     1    21    1
     8    21    22    1
     9    22    23    1
    10    23    24    1
    11     1     9    1
    12     9    10   ar
    13    10    11   ar
    14    11    12   ar
    15    12    13   ar
    16    13    14   ar
    17     1    15    1
    18    15    16   ar
    19    16    17   ar
    20    17    18   ar
    21    18    19   ar
    22    19    20   ar
    23     7     8   ar
    24     8     3   ar
    25    14     9   ar
    26    20    15   ar
    27    24    25    1
    28    24    26    1
@<TRIPOS>MOLECULE
*****
 26 28 0 0 0
SMALL
GASTEIGER

@<TRIPOS>ATOM
      1 C          62.2079   85.9509   11.0262 C.3     1  UNL1        0.0564
      2 C          61.8591   81.3054   13.3280 C.3     1  UNL1        0.0310
      3 C          62.5081   82.2129   12.3254 C.ar    1  UNL1       -0.0221
      4 C          63.6317   81.7053   11.4711 C.ar    1  UNL1       -0.0043
      5 C          64.2807   82.6128   10.4685 C.ar    1  UNL1       -0.0006
      6 C          63.8061   84.0280   10.3202 C.ar    1  UNL1       -0.0037
      7 C          62.6825   84.5356   11.1745 C.ar    1  UNL1       -0.0155
      8 C          62.0335   83.6281   12.1771 C.ar    1  UNL1       -0.0079
      9 C          61.9460   85.7103    9.5690 C.ar    1  UNL1       -0.0152
     10 C          63.0515   85.2261    8.6782 C.ar    1  UNL1       -0.0037
     11 C          62.7896   84.9855    7.2210 C.ar    1  UNL1       -0.0003
     12 C          61.4222   85.2291    6.6545 C.ar    1  UNL1       -0.0000
     13 C          60.3167   85.7132    7.5452 C.ar    1  UNL1       -0.0003
     14 C          60.5786   85.9538    9.0025 C.ar    1  UNL1       -0.0037
     15 C          61.7333   87.3660   10.8778 C.ar    1  UNL1       -0.0152
     16 C          60.3776   87.7595   11.3852 C.ar    1  UNL1       -0.0037
     17 C          59.9030   89.1747   11.2369 C.ar    1  UNL1       -0.0003
     18 C          60.7840   90.1964   10.5812 C.ar    1  UNL1       -0.0000
     19 C          62.1396   89.8029   10.0738 C.ar    1  UNL1       -0.0003
     20 C          62.6143   88.3877   10.2221 C.ar    1  UNL1       -0.0037
     21 C          62.4698   86.1914   12.4834 C.3     1  UNL1        0.0136
     22 C          63.8792   86.2338   12.9951 C.3     1  UNL1        0.0178
     23 C          64.1821   85.7905   14.3958 C.3     1  UNL1        0.0652
     24 N          65.1584   84.6772   14.6356 N.3     1  UNL1       -0.3211
     25 H          64.7813   83.8075   14.2591 H       1  UNL1        0.1189
     26 H          65.3164   84.5736   15.6379 H       1  UNL1        0.1189
@<TRIPOS>BOND
     1     2     3    1
     2     3     4   ar
     3     4     5   ar
     4     5     6   ar
     5     6     7   ar
     6     7     1    1
     7     1    21    1
     8    21    22    1
     9    22    23    1
    10    23    24    1
    11     1     9    1
    12     9    10   ar
    13    10    11   ar
    14    11    12   ar
    15    12    13   ar
    16    13    14   ar
    17     1    15    1
    18    15    16   ar
    19    16    17   ar
    20    17    18   ar
    21    18    19   ar
    22    19    20   ar
    23     7     8   ar
    24     8     3   ar
    25    14     9   ar
    26    20    15   ar
    27    24    25    1
    28    24    26    1
@<TRIPOS>MOLECULE
*****
 26 28 0 0 0
SMALL
GASTEIGER

@<TRIPOS>ATOM
      1 C          62.1284   86.1335   11.0833 C.3     1  UNL1        0.0564
      2 C          62.0169   81.4362   13.3021 C.3     1  UNL1        0.0310
      3 C          62.6304   82.3991   12.3292 C.ar    1  UNL1       -0.0221
      4 C          63.8016   81.9763   11.4929 C.ar    1  UNL1       -0.0043
      5 C          64.4151   82.9392   10.5200 C.ar    1  UNL1       -0.0006
      6 C          63.8574   84.3249   10.3835 C.ar    1  UNL1       -0.0037
      7 C          62.6862   84.7477   11.2198 C.ar    1  UNL1       -0.0155
      8 C          62.0727   83.7848   12.1926 C.ar    1  UNL1       -0.0079
      9 C          62.9321   86.5739   12.2707 C.ar    1  UNL1       -0.0152
     10 C          63.2327   88.0293   12.4749 C.ar    1  UNL1       -0.0037
     11 C          64.0364   88.4697   13.6623 C.ar    1  UNL1       -0.0003
     12 C          64.5396   87.4548   14.6456 C.ar    1  UNL1       -0.0000
     13 C          64.2390   85.9995   14.4415 C.ar    1  UNL1       -0.0003
     14 C          63.4353   85.5590   13.2540 C.ar    1  UNL1       -0.0037
     15 C          61.5707   87.5192   10.9468 C.ar    1  UNL1       -0.0152
     16 C          60.2705   87.8727   11.6061 C.ar    1  UNL1       -0.0037
     17 C          59.7128   89.2584   11.4696 C.ar    1  UNL1       -0.0003
     18 C          60.4552   90.2907   10.6739 C.ar    1  UNL1       -0.0000
     19 C          61.7553   89.9373   10.0146 C.ar    1  UNL1       -0.0003
     20 C          62.3131   88.5515   10.1511 C.ar    1  UNL1       -0.0037
     21 C          61.3247   85.6931    9.8958 C.3     1  UNL1        0.0136
     22 C          61.7648   86.0677    8.5116 C.3     1  UNL1        0.0178
     23 C          60.8781   85.7747    7.3377 C.3     1  UNL1        0.0652
     24 N          59.3983   85.9971    7.4416 N.3     1  UNL1       -0.3211
     25 H          59.0035   85.3462    8.1204 H       1  UNL1        0.1189
     26 H          58.9664   85.8419    6.5306 H       1  UNL1        0.1189
@<TRIPOS>BOND
     1     2     3    1
     2     3     4   ar
     3     4     5   ar
     4     5     6   ar
     5     6     7   ar
     6     7     1    1
     7     1    21    1
     8    21    22    1
     9    22    23    1
    10    23    24    1
    11     1     9    1
    12     9    10   ar
    13    10    11   ar
    14    11    12   ar
    15    12    13   ar
    16    13    14   ar
    17     1    15    1
    18    15    16   ar
    19    16    17   ar
    20    17    18   ar
    21    18    19   ar
    22    19    20   ar
    23     7     8   ar
    24     8     3   ar
    25    14     9   ar
    26    20    15   ar
    27    24    25    1
    28    24    26    1
@<TRIPOS>MOLECULE
*****
 26 28 0 0 0
SMALL
GASTEIGER

@<TRIPOS>ATOM
      1 C          62.5324   85.5735   11.6190 C.3     1  UNL1        0.0564
      2 C          58.9633   86.8156    8.0526 C.3     1  UNL1        0.0310
      3 C          60.3035   86.2406    8.4038 C.ar    1  UNL1       -0.0221
      4 C          61.1993   85.7118    7.3232 C.ar    1  UNL1       -0.0043
      5 C          62.5394   85.1368    7.6744 C.ar    1  UNL1       -0.0006
      6 C          62.9838   85.0907    9.1063 C.ar    1  UNL1       -0.0037
      7 C          62.0880   85.6196   10.1870 C.ar    1  UNL1       -0.0155
      8 C          60.7479   86.1945    9.8357 C.ar    1  UNL1       -0.0079
      9 C          63.0057   84.1632   11.4266 C.ar    1  UNL1       -0.0152
     10 C          62.1065   83.0156   11.7794 C.ar    1  UNL1       -0.0037
     11 C          62.5799   81.6053   11.5871 C.ar    1  UNL1       -0.0003
     12 C          63.9524   81.3426   11.0420 C.ar    1  UNL1       -0.0000
     13 C          64.8516   82.4901   10.6893 C.ar    1  UNL1       -0.0003
     14 C          64.3783   83.9005   10.8816 C.ar    1  UNL1       -0.0037
     15 C          62.9768   85.5274   13.0508 C.ar    1  UNL1       -0.0152
     16 C          63.9960   86.5073   13.5518 C.ar    1  UNL1       -0.0037
     17 C          64.4404   86.4612   14.9837 C.ar    1  UNL1       -0.0003
     18 C          63.8655   85.4351   15.9147 C.ar    1  UNL1       -0.0000
     19 C          62.8463   84.4552   15.4138 C.ar    1  UNL1       -0.0003
     20 C          62.4019   84.5013   13.9819 C.ar    1  UNL1       -0.0037
     21 C          62.0591   86.9838   11.8113 C.3     1  UNL1        0.0136
     22 C          62.7297   88.1067   11.0770 C.3     1  UNL1        0.0178
     23 C          62.4368   89.5291   11.4526 C.3     1  UNL1        0.0652
     24 N          62.0007   89.8615   12.8488 N.3     1  UNL1       -0.3211
     25 H          61.0864   89.4460   13.0274 H       1  UNL1        0.1189
     26 H          61.9404   90.8742   12.9541 H       1  UNL1        0.1189
@<TRIPOS>BOND
     1     2     3    1
     2     3     4   ar
     3     4     5   ar
     4     5     6   ar
     5     6     7   ar
     6     7     1    1
     7     1    21    1
     8    21    22    1
     9    22    23    1
    10    23    24    1
    11     1     9    1
    12     9    10   ar
    13    10    11   ar
    14    11    12   ar
    15    12    13   ar
    16    13    14   ar
    17     1    15    1
    18    15    16   ar
    19    16    17   ar
    20    17    18   ar
    21    18    19   ar
    22    19    20   ar
    23     7     8   ar
    24     8     3   ar
    25    14     9   ar
    26    20    15   ar
    27    24    25    1
    28    24    26    1
@<TRIPOS>MOLECULE
*****
 26 28 0 0 0
SMALL
GASTEIGER

@<TRIPOS>ATOM
      1 C          62.4601   86.3248   11.2010 C.3     1  UNL1        0.0564
      2 C          62.3048   84.6469    6.2857 C.3     1  UNL1        0.0310
      3 C          61.6465   85.3341    7.4451 C.ar    1  UNL1       -0.0221
      4 C          60.2523   85.8697    7.3064 C.ar    1  UNL1       -0.0043
      5 C          59.5940   86.5569    8.4659 C.ar    1  UNL1       -0.0006
      6 C          60.3299   86.7086    9.7640 C.ar    1  UNL1       -0.0037
      7 C          61.7241   86.1731    9.9028 C.ar    1  UNL1       -0.0155
      8 C          62.3824   85.4858    8.7433 C.ar    1  UNL1       -0.0079
      9 C          62.8288   84.8714   11.1618 C.ar    1  UNL1       -0.0152
     10 C          62.0347   83.8745   11.9528 C.ar    1  UNL1       -0.0037
     11 C          62.4034   82.4211   11.9135 C.ar    1  UNL1       -0.0003
     12 C          63.5662   81.9644   11.0833 C.ar    1  UNL1       -0.0000
     13 C          64.3603   82.9612   10.2922 C.ar    1  UNL1       -0.0003
     14 C          63.9916   84.4147   10.3315 C.ar    1  UNL1       -0.0037
     15 C          63.1961   86.4764   12.4992 C.ar    1  UNL1       -0.0152
     16 C          63.5371   87.8439   13.0128 C.ar    1  UNL1       -0.0037
     17 C          64.2731   87.9956   14.3109 C.ar    1  UNL1       -0.0003
     18 C          64.6681   86.7797   15.0956 C.ar    1  UNL1       -0.0000
     19 C          64.3271   85.4123   14.5821 C.ar    1  UNL1       -0.0003
     20 C          63.5911   85.2606   13.2839 C.ar    1  UNL1       -0.0037
     21 C          62.0914   87.7782   11.2403 C.3     1  UNL1        0.0136
     22 C          62.5142   88.6896   10.1265 C.3     1  UNL1        0.0178
     23 C          61.9451   90.0744   10.0335 C.3     1  UNL1        0.0652
     24 N          62.8616   91.2549    9.9059 N.3     1  UNL1       -0.3211
     25 H          63.4106   91.3530   10.7600 H       1  UNL1        0.1189
     26 H          62.3094   92.0996    9.7578 H       1  UNL1        0.1189
@<TRIPOS>BOND
     1     2     3    1
     2     3     4   ar
     3     4     5   ar
     4     5     6   ar
     5     6     7   ar
     6     7     1    1
     7     1    21    1
     8    21    22    1
     9    22    23    1
    10    23    24    1
    11     1     9    1
    12     9    10   ar
    13    10    11   ar
    14    11    12   ar
    15    12    13   ar
    16    13    14   ar
    17     1    15    1
    18    15    16   ar
    19    16    17   ar
    20    17    18   ar
    21    18    19   ar
    22    19    20   ar
    23     7     8   ar
    24     8     3   ar
    25    14     9   ar
    26    20    15   ar
    27    24    25    1
    28    24    26    1
@<TRIPOS>MOLECULE
*****
 26 28 0 0 0
SMALL
GASTEIGER

@<TRIPOS>ATOM
      1 C          62.4554   86.3217   11.1228 C.3     1  UNL1        0.0564
      2 C          64.5376   89.4304   14.7283 C.3     1  UNL1        0.0310
      3 C          64.2034   88.0533   14.2366 C.ar    1  UNL1       -0.0221
      4 C          64.5760   86.8534   15.0560 C.ar    1  UNL1       -0.0043
      5 C          64.2417   85.4762   14.5643 C.ar    1  UNL1       -0.0006
      6 C          63.5349   85.2990   13.2532 C.ar    1  UNL1       -0.0037
      7 C          63.1623   86.4989   12.4339 C.ar    1  UNL1       -0.0155
      8 C          63.4965   87.8760   12.9256 C.ar    1  UNL1       -0.0079
      9 C          62.8481   84.8741   11.1067 C.ar    1  UNL1       -0.0152
     10 C          64.0446   84.4303   10.3183 C.ar    1  UNL1       -0.0037
     11 C          64.4373   82.9827   10.3022 C.ar    1  UNL1       -0.0003
     12 C          63.6337   81.9789   11.0746 C.ar    1  UNL1       -0.0000
     13 C          62.4373   82.4227   11.8630 C.ar    1  UNL1       -0.0003
     14 C          62.0445   83.8703   11.8791 C.ar    1  UNL1       -0.0037
     15 C          61.7486   86.1444    9.8117 C.ar    1  UNL1       -0.0152
     16 C          62.4630   85.5126    8.6539 C.ar    1  UNL1       -0.0037
     17 C          61.7561   85.3353    7.3428 C.ar    1  UNL1       -0.0003
     18 C          60.3349   85.7898    7.1895 C.ar    1  UNL1       -0.0000
     19 C          59.6205   86.4216    8.3472 C.ar    1  UNL1       -0.0003
     20 C          60.3273   86.5989    9.6584 C.ar    1  UNL1       -0.0037
     21 C          62.0626   87.7692   11.1388 C.3     1  UNL1        0.0136
     22 C          62.5583   88.6927   10.0658 C.3     1  UNL1        0.0178
     23 C          62.0004   90.0807    9.9542 C.3     1  UNL1        0.0652
     24 N          60.5184   90.2870    9.8476 N.3     1  UNL1       -0.3211
     25 H          60.1834   89.8970    8.9667 H       1  UNL1        0.1189
     26 H          60.3110   91.2852    9.8783 H       1  UNL1        0.1189
@<TRIPOS>BOND
     1     2     3    1
     2     3     4   ar
     3     4     5   ar
     4     5     6   ar
     5     6     7   ar
     6     7     1    1
     7     1    21    1
     8    21    22    1
     9    22    23    1
    10    23    24    1
    11     1     9    1
    12     9    10   ar
    13    10    11   ar
    14    11    12   ar
    15    12    13   ar
    16    13    14   ar
    17     1    15    1
    18    15    16   ar
    19    16    17   ar
    20    17    18   ar
    21    18    19   ar
    22    19    20   ar
    23     7     8   ar
    24     8     3   ar
    25    14     9   ar
    26    20    15   ar
    27    24    25    1
    28    24    26    1
