@<TRIPOS>MOLECULE
*****
 9 9 0 0 0
SMALL
GASTEIGER

@<TRIPOS>ATOM
      1 C          63.4608   82.4324   14.1272 C.ar    1  UNL1        0.1167
      2 N          64.3256   83.6348   13.8898 N.ar    1  UNL1       -0.2354
      3 C          63.8925   84.7120   14.8395 C.ar    1  UNL1        0.0776
      4 C          64.4875   86.0849   14.9461 C.3     1  UNL1        0.0537
      5 C          62.7600   84.1754   15.6639 C.ar    1  UNL1        0.0882
      6 N          62.4932   82.7665   15.2236 N.ar    1  UNL1       -0.3399
      7 H          61.8040   82.1665   15.5900 H       1  UNL1        0.1671
      8 C          62.3635   80.2061   13.3594 C.3     1  UNL1        0.0084
      9 C          63.5482   81.1253   13.3965 C.3     1  UNL1        0.0637
@<TRIPOS>BOND
     1     8     9    1
     2     9     1    1
     3     1     2   ar
     4     2     3   ar
     5     3     4    1
     6     3     5   ar
     7     5     6   ar
     8     6     1   ar
     9     6     7    1
@<TRIPOS>MOLECULE
*****
 9 9 0 0 0
SMALL
GASTEIGER

@<TRIPOS>ATOM
      1 C          67.0315   92.7189   12.0196 C.ar    1  UNL1        0.1167
      2 N          67.8736   91.9928   13.0264 N.ar    1  UNL1       -0.2354
      3 C          67.5978   92.5866   14.3760 C.ar    1  UNL1        0.0776
      4 C          68.2245   92.1619   15.6709 C.3     1  UNL1        0.0537
      5 C          66.5853   93.6798   14.2033 C.ar    1  UNL1        0.0882
      6 N          66.2353   93.7615   12.7469 N.ar    1  UNL1       -0.3399
      7 H          65.5954   94.3893   12.3399 H       1  UNL1        0.1671
      8 C          68.2656   92.1861    9.7963 C.3     1  UNL1        0.0084
      9 C          66.9926   92.4497   10.5445 C.3     1  UNL1        0.0637
@<TRIPOS>BOND
     1     8     9    1
     2     9     1    1
     3     1     2   ar
     4     2     3   ar
     5     3     4    1
     6     3     5   ar
     7     5     6   ar
     8     6     1   ar
     9     6     7    1
@<TRIPOS>MOLECULE
*****
 9 9 0 0 0
SMALL
GASTEIGER

@<TRIPOS>ATOM
      1 C          64.0335   83.8043   14.5243 C.ar    1  UNL1        0.1167
      2 N          63.1588   82.6203   14.8126 N.ar    1  UNL1       -0.2354
      3 C          63.2857   81.6602   13.6672 C.ar    1  UNL1        0.0776
      4 C          62.5829   80.3411   13.5404 C.3     1  UNL1        0.0537
      5 C          64.2389   82.2508   12.6708 C.ar    1  UNL1        0.0882
      6 N          64.7010   83.5759   13.2006 N.ar    1  UNL1       -0.3399
      7 H          65.3317   84.1882   12.7572 H       1  UNL1        0.1671
      8 C          64.5177   86.3421   14.7976 C.3     1  UNL1        0.0084
      9 C          64.2096   85.0057   15.4049 C.3     1  UNL1        0.0637
@<TRIPOS>BOND
     1     8     9    1
     2     9     1    1
     3     1     2   ar
     4     2     3   ar
     5     3     4    1
     6     3     5   ar
     7     5     6   ar
     8     6     1   ar
     9     6     7    1
@<TRIPOS>MOLECULE
*****
 9 9 0 0 0
SMALL
GASTEIGER

@<TRIPOS>ATOM
      1 C          63.0360   82.1901   12.1887 C.ar    1  UNL1        0.1167
      2 N          63.2327   83.3867   13.0716 N.ar    1  UNL1       -0.2354
      3 C          62.5295   83.1251   14.3704 C.ar    1  UNL1        0.0776
      4 C          62.4684   84.0581   15.5434 C.3     1  UNL1        0.0537
      5 C          61.8982   81.7668   14.2904 C.ar    1  UNL1        0.0882
      6 N          62.2113   81.1889   12.9420 N.ar    1  UNL1       -0.3399
      7 H          61.9256   80.3073   12.6098 H       1  UNL1        0.1671
      8 C          64.0761   83.2161   10.0404 C.3     1  UNL1        0.0084
      9 C          63.5703   82.0238   10.7970 C.3     1  UNL1        0.0637
@<TRIPOS>BOND
     1     8     9    1
     2     9     1    1
     3     1     2   ar
     4     2     3   ar
     5     3     4    1
     6     3     5   ar
     7     5     6   ar
     8     6     1   ar
     9     6     7    1
@<TRIPOS>MOLECULE
*****
 9 9 0 0 0
SMALL
GASTEIGER

@<TRIPOS>ATOM
      1 C          66.7578   92.0572   13.6013 C.ar    1  UNL1        0.1167
      2 N          67.6814   92.3384   12.4533 N.ar    1  UNL1       -0.2354
      3 C          66.8429   92.6476   11.2487 C.ar    1  UNL1        0.0776
      4 C          67.3561   92.9872    9.8807 C.3     1  UNL1        0.0537
      5 C          65.4010   92.5575   11.6521 C.ar    1  UNL1        0.0882
      6 N          65.3484   92.1926   13.1061 N.ar    1  UNL1       -0.3399
      7 H          64.5322   92.0645   13.6415 H       1  UNL1        0.1671
      8 C          67.4103   92.7867   16.0080 C.3     1  UNL1        0.0084
      9 C          67.1711   91.7029   14.9991 C.3     1  UNL1        0.0637
@<TRIPOS>BOND
     1     8     9    1
     2     9     1    1
     3     1     2   ar
     4     2     3   ar
     5     3     4    1
     6     3     5   ar
     7     5     6   ar
     8     6     1   ar
     9     6     7    1
@<TRIPOS>MOLECULE
*****
 9 9 0 0 0
SMALL
GASTEIGER

@<TRIPOS>ATOM
      1 C          63.1862   83.0524   12.8739 C.ar    1  UNL1        0.1167
      2 N          63.9636   84.3277   13.0129 N.ar    1  UNL1       -0.2354
      3 C          63.8771   84.7697   14.4437 C.ar    1  UNL1        0.0776
      4 C          64.5103   85.9981   15.0268 C.3     1  UNL1        0.0537
      5 C          63.0461   83.7677   15.1889 C.ar    1  UNL1        0.0882
      6 N          62.6191   82.7064   14.2187 N.ar    1  UNL1       -0.3399
      7 H          62.0641   81.9206   14.4279 H       1  UNL1        0.1671
      8 C          63.9879   82.4130   10.4868 C.3     1  UNL1        0.0084
      9 C          63.0072   82.2621   11.6116 C.3     1  UNL1        0.0637
@<TRIPOS>BOND
     1     8     9    1
     2     9     1    1
     3     1     2   ar
     4     2     3   ar
     5     3     4    1
     6     3     5   ar
     7     5     6   ar
     8     6     1   ar
     9     6     7    1
@<TRIPOS>MOLECULE
*****
 9 9 0 0 0
SMALL
GASTEIGER

@<TRIPOS>ATOM
      1 C          62.5610   84.3453   12.5330 C.ar    1  UNL1        0.1167
      2 N          62.5603   82.8683   12.2714 N.ar    1  UNL1       -0.2354
      3 C          62.4810   82.1634   13.5931 C.ar    1  UNL1        0.0776
      4 C          62.4547   80.6780   13.8000 C.3     1  UNL1        0.0537
      5 C          62.4327   83.2048   14.6716 C.ar    1  UNL1        0.0882
      6 N          62.4822   84.5533   14.0164 N.ar    1  UNL1       -0.3399
      7 H          62.4657   85.4223   14.4788 H       1  UNL1        0.1671
      8 C          61.3718   86.0998   11.0305 C.3     1  UNL1        0.0084
      9 C          62.6287   85.4248   11.4937 C.3     1  UNL1        0.0637
@<TRIPOS>BOND
     1     8     9    1
     2     9     1    1
     3     1     2   ar
     4     2     3   ar
     5     3     4    1
     6     3     5   ar
     7     5     6   ar
     8     6     1   ar
     9     6     7    1
@<TRIPOS>MOLECULE
*****
 9 9 0 0 0
SMALL
GASTEIGER

@<TRIPOS>ATOM
      1 C          62.4652   85.2304   11.7539 C.ar    1  UNL1        0.1167
      2 N          63.0877   86.1298   12.7803 N.ar    1  UNL1       -0.2354
      3 C          63.8212   85.2699   13.7665 C.ar    1  UNL1        0.0776
      4 C          64.5890   85.7557   14.9600 C.3     1  UNL1        0.0537
      5 C          63.6520   83.8390   13.3496 C.ar    1  UNL1        0.0882
      6 N          62.8140   83.8146   12.1058 N.ar    1  UNL1       -0.3399
      7 H          62.5408   83.0105   11.6077 H       1  UNL1        0.1671
      8 C          62.3060   86.0343    9.2885 C.3     1  UNL1        0.0084
      9 C          61.6390   85.6697   10.5816 C.3     1  UNL1        0.0637
@<TRIPOS>BOND
     1     8     9    1
     2     9     1    1
     3     1     2   ar
     4     2     3   ar
     5     3     4    1
     6     3     5   ar
     7     5     6   ar
     8     6     1   ar
     9     6     7    1
@<TRIPOS>MOLECULE
*****
 9 9 0 0 0
SMALL
GASTEIGER

@<TRIPOS>ATOM
      1 C          65.2041   91.4228   13.8023 C.ar    1  UNL1        0.1167
      2 N          66.1004   91.6175   14.9892 N.ar    1  UNL1       -0.2354
      3 C          66.8972   92.8690   14.7681 C.ar    1  UNL1        0.0776
      4 C          67.9184   93.4413   15.7059 C.3     1  UNL1        0.0537
      5 C          66.4934   93.4477   13.4445 C.ar    1  UNL1        0.0882
      6 N          65.4470   92.5539   12.8476 N.ar    1  UNL1       -0.3399
      7 H          64.9984   92.6864   11.9813 H       1  UNL1        0.1671
      8 C          64.3412   89.0587   14.4477 C.3     1  UNL1        0.0084
      9 C          64.2351   90.2949   13.6048 C.3     1  UNL1        0.0637
@<TRIPOS>BOND
     1     8     9    1
     2     9     1    1
     3     1     2   ar
     4     2     3   ar
     5     3     4    1
     6     3     5   ar
     7     5     6   ar
     8     6     1   ar
     9     6     7    1
