@<TRIPOS>MOLECULE
*****
 21 23 0 0 0
SMALL
GASTEIGER

@<TRIPOS>ATOM
      1 C          62.4149   89.3144   10.8750 C.2     1  UNL1        0.3689
      2 N          63.1663   90.5032   10.3533 N.2     1  UNL1       -0.0400
      3 C          64.0666   91.2814   11.2666 C.2     1  UNL1        0.1818
      4 C          64.8179   92.4702   10.7449 C.3     1  UNL1        0.1000
      5 C          65.7181   93.2483   11.6582 C.2     1  UNL1       -0.0174
      6 C          65.8670   92.8376   13.0932 C.2     1  UNL1       -0.0038
      7 C          65.1156   91.6488   13.6149 C.2     1  UNL1        0.0101
      8 C          64.2154   90.8707   12.7016 C.2     1  UNL1        0.1209
      9 C          63.4640   89.6818   13.2232 C.2     1  UNL1        0.3788
     10 O          63.6129   89.2711   14.6582 O.2     1  UNL1       -0.2376
     11 N          62.5638   88.9037   12.3099 N.am    1  UNL1        0.0364
     12 C          59.6945   88.4796    8.1087 C.ar    1  UNL1        0.1724
     13 C          60.5947   89.2577    9.0220 C.ar    1  UNL1        0.0475
     14 C          61.5147   88.5363    9.9616 C.ar    1  UNL1        0.0896
     15 C          61.5345   87.0366    9.9881 C.ar    1  UNL1        0.0108
     16 C          60.6343   86.2585    9.0748 C.ar    1  UNL1        0.0400
     17 C          59.7143   86.9799    8.1352 C.ar    1  UNL1        0.1677
     18 O          58.8140   86.2018    7.2219 O.3     1  UNL1       -0.5029
     19 H          58.8264   85.2650    7.2383 H       1  UNL1        0.2923
     20 C          59.3368   89.9592    6.0033 C.3     1  UNL1        0.2526
     21 O          58.7744   89.2011    7.1690 O.3     1  UNL1       -0.4684
@<TRIPOS>BOND
     1    20    21    1
     2    21    12    1
     3    12    13   ar
     4    13    14   ar
     5    14     1    1
     6     1     2    1
     7     2     3    2
     8     3     4    1
     9     4     5    1
    10     5     6    2
    11     6     7    1
    12     7     8    2
    13     8     9    1
    14     9    10    2
    15     9    11    1
    16    14    15   ar
    17    15    16   ar
    18    16    17   ar
    19    17    18    1
    20    17    12   ar
    21    11     1    2
    22     8     3    1
    23    18    19    1
@<TRIPOS>MOLECULE
*****
 21 23 0 0 0
SMALL
GASTEIGER

@<TRIPOS>ATOM
      1 C          62.7016   88.8453   11.6375 C.2     1  UNL1        0.3689
      2 N          61.8803   89.4948   10.5634 N.2     1  UNL1       -0.0400
      3 C          61.0504   88.6519    9.6410 C.2     1  UNL1        0.1818
      4 C          60.2291   89.3014    8.5669 C.3     1  UNL1        0.1000
      5 C          59.3992   88.4586    7.6445 C.2     1  UNL1       -0.0174
      6 C          59.3905   86.9663    7.7962 C.2     1  UNL1       -0.0038
      7 C          60.2118   86.3168    8.8703 C.2     1  UNL1        0.0101
      8 C          61.0417   87.1596    9.7926 C.2     1  UNL1        0.1209
      9 C          61.8630   86.5102   10.8668 C.2     1  UNL1        0.3788
     10 O          61.8543   85.0179   11.0185 O.2     1  UNL1       -0.2376
     11 N          62.6929   87.3530   11.7892 N.am    1  UNL1        0.0364
     12 C          64.8716   91.8649   13.0242 C.ar    1  UNL1        0.1724
     13 C          64.0417   91.0222   12.1017 C.ar    1  UNL1        0.0475
     14 C          63.5316   89.6881   12.5600 C.ar    1  UNL1        0.0896
     15 C          63.8514   89.1968   13.9406 C.ar    1  UNL1        0.0108
     16 C          64.6814   90.0395   14.8631 C.ar    1  UNL1        0.0400
     17 C          65.1915   91.3736   14.4048 C.ar    1  UNL1        0.1677
     18 O          66.0214   92.2164   15.3273 O.3     1  UNL1       -0.5029
     19 H          66.2212   91.9095   16.1898 H       1  UNL1        0.2923
     20 C          65.5866   93.4616   11.1034 C.3     1  UNL1        0.2526
     21 O          65.3817   93.1991   12.5659 O.3     1  UNL1       -0.4684
@<TRIPOS>BOND
     1    20    21    1
     2    21    12    1
     3    12    13   ar
     4    13    14   ar
     5    14     1    1
     6     1     2    1
     7     2     3    2
     8     3     4    1
     9     4     5    1
    10     5     6    2
    11     6     7    1
    12     7     8    2
    13     8     9    1
    14     9    10    2
    15     9    11    1
    16    14    15   ar
    17    15    16   ar
    18    16    17   ar
    19    17    18    1
    20    17    12   ar
    21    11     1    2
    22     8     3    1
    23    18    19    1
@<TRIPOS>MOLECULE
*****
 21 23 0 0 0
SMALL
GASTEIGER

@<TRIPOS>ATOM
      1 C          62.2565   86.4329   11.6040 C.2     1  UNL1        0.3689
      2 N          61.4231   85.8690   10.4916 N.2     1  UNL1       -0.0400
      3 C          60.7785   86.7885    9.4970 C.2     1  UNL1        0.1818
      4 C          59.9451   86.2247    8.3847 C.3     1  UNL1        0.1000
      5 C          59.3006   87.1442    7.3902 C.2     1  UNL1       -0.0174
      6 C          59.4895   88.6276    7.5080 C.2     1  UNL1       -0.0038
      7 C          60.3230   89.1914    8.6204 C.2     1  UNL1        0.0101
      8 C          60.9675   88.2719    9.6149 C.2     1  UNL1        0.1209
      9 C          61.8010   88.8358   10.7273 C.2     1  UNL1        0.3788
     10 O          61.9899   90.3191   10.8451 O.2     1  UNL1       -0.2376
     11 N          62.4455   87.9163   11.7218 N.am    1  UNL1        0.0364
     12 C          63.2627   83.1216   13.5464 C.ar    1  UNL1        0.1724
     13 C          62.6182   84.0411   12.5518 C.ar    1  UNL1        0.0475
     14 C          62.9011   85.5134   12.5985 C.ar    1  UNL1        0.0896
     15 C          63.8285   86.0662   13.6398 C.ar    1  UNL1        0.0108
     16 C          64.4730   85.1468   14.6343 C.ar    1  UNL1        0.0400
     17 C          64.1901   83.6745   14.5876 C.ar    1  UNL1        0.1677
     18 O          64.8347   82.7550   15.5822 O.3     1  UNL1       -0.5029
     19 H          65.4140   83.1003   16.2327 H       1  UNL1        0.2923
     20 C          61.6494   81.1264   13.9541 C.3     1  UNL1        0.2526
     21 O          62.9798   81.6492   13.4997 O.3     1  UNL1       -0.4684
@<TRIPOS>BOND
     1    20    21    1
     2    21    12    1
     3    12    13   ar
     4    13    14   ar
     5    14     1    1
     6     1     2    1
     7     2     3    2
     8     3     4    1
     9     4     5    1
    10     5     6    2
    11     6     7    1
    12     7     8    2
    13     8     9    1
    14     9    10    2
    15     9    11    1
    16    14    15   ar
    17    15    16   ar
    18    16    17   ar
    19    17    18    1
    20    17    12   ar
    21    11     1    2
    22     8     3    1
    23    18    19    1
@<TRIPOS>MOLECULE
*****
 21 23 0 0 0
SMALL
GASTEIGER

@<TRIPOS>ATOM
      1 C          63.6178   87.9529   13.7526 C.2     1  UNL1        0.3689
      2 N          63.9926   86.6064   14.2969 N.2     1  UNL1       -0.0400
      3 C          63.7247   85.3703   13.4904 C.2     1  UNL1        0.1818
      4 C          64.0996   84.0238   14.0347 C.3     1  UNL1        0.1000
      5 C          63.8317   82.7878   13.2282 C.2     1  UNL1       -0.0174
      6 C          63.1890   82.8983   11.8774 C.2     1  UNL1       -0.0038
      7 C          62.8142   84.2448   11.3331 C.2     1  UNL1        0.0101
      8 C          63.0821   85.4808   12.1396 C.2     1  UNL1        0.1209
      9 C          62.7072   86.8274   11.5952 C.2     1  UNL1        0.3788
     10 O          62.0646   86.9379   10.2444 O.2     1  UNL1       -0.2376
     11 N          62.9751   88.0634   12.4017 N.am    1  UNL1        0.0364
     12 C          64.9898   91.5294   14.7902 C.ar    1  UNL1        0.1724
     13 C          64.7220   90.2933   13.9838 C.ar    1  UNL1        0.0475
     14 C          63.8856   89.1890   14.5591 C.ar    1  UNL1        0.0896
     15 C          63.3171   89.3208   15.9409 C.ar    1  UNL1        0.0108
     16 C          63.5849   90.5568   16.7474 C.ar    1  UNL1        0.0400
     17 C          64.4212   91.6611   16.1721 C.ar    1  UNL1        0.1677
     18 O          64.6891   92.8972   16.9786 O.3     1  UNL1       -0.5029
     19 H          64.3339   92.9795   17.8417 H       1  UNL1        0.2923
     20 C          65.8505   92.8617   12.7326 C.3     1  UNL1        0.2526
     21 O          65.8261   92.6337   14.2149 O.3     1  UNL1       -0.4684
@<TRIPOS>BOND
     1    20    21    1
     2    21    12    1
     3    12    13   ar
     4    13    14   ar
     5    14     1    1
     6     1     2    1
     7     2     3    2
     8     3     4    1
     9     4     5    1
    10     5     6    2
    11     6     7    1
    12     7     8    2
    13     8     9    1
    14     9    10    2
    15     9    11    1
    16    14    15   ar
    17    15    16   ar
    18    16    17   ar
    19    17    18    1
    20    17    12   ar
    21    11     1    2
    22     8     3    1
    23    18    19    1
@<TRIPOS>MOLECULE
*****
 21 23 0 0 0
SMALL
GASTEIGER

@<TRIPOS>ATOM
      1 C          62.3695   89.5047   10.6882 C.2     1  UNL1        0.3689
      2 N          62.6188   89.1230   12.1172 N.2     1  UNL1       -0.0400
      3 C          63.5600   89.9347   12.9571 C.2     1  UNL1        0.1818
      4 C          63.8093   89.5530   14.3861 C.3     1  UNL1        0.1000
      5 C          64.7505   90.3646   15.2259 C.2     1  UNL1       -0.0174
      6 C          65.4425   91.5579   14.6367 C.2     1  UNL1       -0.0038
      7 C          65.1932   91.9397   13.2077 C.2     1  UNL1        0.0101
      8 C          64.2519   91.1280   12.3679 C.2     1  UNL1        0.1209
      9 C          64.0026   91.5097   10.9388 C.2     1  UNL1        0.3788
     10 O          64.6945   92.7030   10.3496 O.2     1  UNL1       -0.2376
     11 N          63.0614   90.6981   10.0990 N.am    1  UNL1        0.0364
     12 C          59.5982   88.5603    8.0090 C.ar    1  UNL1        0.1724
     13 C          60.5394   89.3719    8.8489 C.ar    1  UNL1        0.0475
     14 C          61.4282   88.6930    9.8483 C.ar    1  UNL1        0.0896
     15 C          61.3759   87.2025   10.0080 C.ar    1  UNL1        0.0108
     16 C          60.4347   86.3908    9.1682 C.ar    1  UNL1        0.0400
     17 C          59.5458   87.0697    8.1687 C.ar    1  UNL1        0.1677
     18 O          58.6046   86.2581    7.3288 O.3     1  UNL1       -0.5029
     19 H          58.5719   85.3270    7.4286 H       1  UNL1        0.2923
     20 C          59.3098   90.0671    5.9122 C.3     1  UNL1        0.2526
     21 O          58.7093   89.2392    7.0095 O.3     1  UNL1       -0.4684
@<TRIPOS>BOND
     1    20    21    1
     2    21    12    1
     3    12    13   ar
     4    13    14   ar
     5    14     1    1
     6     1     2    1
     7     2     3    2
     8     3     4    1
     9     4     5    1
    10     5     6    2
    11     6     7    1
    12     7     8    2
    13     8     9    1
    14     9    10    2
    15     9    11    1
    16    14    15   ar
    17    15    16   ar
    18    16    17   ar
    19    17    18    1
    20    17    12   ar
    21    11     1    2
    22     8     3    1
    23    18    19    1
@<TRIPOS>MOLECULE
*****
 21 23 0 0 0
SMALL
GASTEIGER

@<TRIPOS>ATOM
      1 C          62.3114   85.6908   11.6022 C.2     1  UNL1        0.3689
      2 N          62.1203   84.2350   11.2958 N.2     1  UNL1       -0.0400
      3 C          62.7020   83.1943   12.2061 C.2     1  UNL1        0.1818
      4 C          62.5110   81.7384   11.8996 C.3     1  UNL1        0.1000
      5 C          63.0927   80.6978   12.8099 C.2     1  UNL1       -0.0174
      6 C          63.8655   81.1130   14.0266 C.2     1  UNL1       -0.0038
      7 C          64.0566   82.5688   14.3330 C.2     1  UNL1        0.0101
      8 C          63.4749   83.6095   13.4228 C.2     1  UNL1        0.1209
      9 C          63.6659   85.0654   13.7292 C.2     1  UNL1        0.3788
     10 O          64.4387   85.4806   14.9459 O.2     1  UNL1       -0.2376
     11 N          63.0842   86.1060   12.8189 N.am    1  UNL1        0.0364
     12 C          61.4137   89.2260   10.0380 C.ar    1  UNL1        0.1724
     13 C          61.9954   88.1854   10.9483 C.ar    1  UNL1        0.0475
     14 C          61.7296   86.7316   10.6920 C.ar    1  UNL1        0.0896
     15 C          60.8820   86.3184    9.5254 C.ar    1  UNL1        0.0108
     16 C          60.3003   87.3590    8.6151 C.ar    1  UNL1        0.0400
     17 C          60.5661   88.8128    8.8714 C.ar    1  UNL1        0.1677
     18 O          59.9843   89.8536    7.9612 O.3     1  UNL1       -0.5029
     19 H          59.4549   89.5955    7.2324 H       1  UNL1        0.2923
     20 C          63.0745   91.2190   10.1789 C.3     1  UNL1        0.2526
     21 O          61.6795   90.6799   10.2944 O.3     1  UNL1       -0.4684
@<TRIPOS>BOND
     1    20    21    1
     2    21    12    1
     3    12    13   ar
     4    13    14   ar
     5    14     1    1
     6     1     2    1
     7     2     3    2
     8     3     4    1
     9     4     5    1
    10     5     6    2
    11     6     7    1
    12     7     8    2
    13     8     9    1
    14     9    10    2
    15     9    11    1
    16    14    15   ar
    17    15    16   ar
    18    16    17   ar
    19    17    18    1
    20    17    12   ar
    21    11     1    2
    22     8     3    1
    23    18    19    1
@<TRIPOS>MOLECULE
*****
 21 23 0 0 0
SMALL
GASTEIGER

@<TRIPOS>ATOM
      1 C          62.9709   90.0718   12.4698 C.2     1  UNL1        0.3689
      2 N          64.0560   91.0324   12.0830 N.2     1  UNL1       -0.0400
      3 C          64.8982   91.6789   13.1428 C.2     1  UNL1        0.1818
      4 C          65.9833   92.6396   12.7560 C.3     1  UNL1        0.1000
      5 C          66.8253   93.2860   13.8157 C.2     1  UNL1       -0.0174
      6 C          66.5823   92.9717   15.2622 C.2     1  UNL1       -0.0038
      7 C          65.4972   92.0111   15.6489 C.2     1  UNL1        0.0101
      8 C          64.6551   91.3646   14.5892 C.2     1  UNL1        0.1209
      9 C          63.5699   90.4039   14.9759 C.2     1  UNL1        0.3788
     10 O          63.3269   90.0897   16.4223 O.2     1  UNL1       -0.2376
     11 N          62.7279   89.7575   13.9162 N.am    1  UNL1        0.0364
     12 C          61.5252   87.3470    9.9726 C.ar    1  UNL1        0.1724
     13 C          62.3673   87.9934   11.0323 C.ar    1  UNL1        0.0475
     14 C          62.1288   89.4253   11.4100 C.ar    1  UNL1        0.0896
     15 C          61.0481   90.2108   10.7281 C.ar    1  UNL1        0.0108
     16 C          60.2059   89.5644    9.6684 C.ar    1  UNL1        0.0400
     17 C          60.4445   88.1325    9.2907 C.ar    1  UNL1        0.1677
     18 O          59.6024   87.4860    8.2310 O.3     1  UNL1       -0.5029
     19 H          58.9273   87.9767    7.8049 H       1  UNL1        0.2923
     20 C          62.7658   85.5770    8.5311 C.3     1  UNL1        0.2526
     21 O          61.7638   85.9150    9.5949 O.3     1  UNL1       -0.4684
@<TRIPOS>BOND
     1    20    21    1
     2    21    12    1
     3    12    13   ar
     4    13    14   ar
     5    14     1    1
     6     1     2    1
     7     2     3    2
     8     3     4    1
     9     4     5    1
    10     5     6    2
    11     6     7    1
    12     7     8    2
    13     8     9    1
    14     9    10    2
    15     9    11    1
    16    14    15   ar
    17    15    16   ar
    18    16    17   ar
    19    17    18    1
    20    17    12   ar
    21    11     1    2
    22     8     3    1
    23    18    19    1
@<TRIPOS>MOLECULE
*****
 21 23 0 0 0
SMALL
GASTEIGER

@<TRIPOS>ATOM
      1 C          63.4087   90.5826   11.4279 C.2     1  UNL1        0.3689
      2 N          63.7570   90.4620   12.8819 N.2     1  UNL1       -0.0400
      3 C          64.7569   91.3979   13.4937 C.2     1  UNL1        0.1818
      4 C          65.1052   91.2773   14.9477 C.3     1  UNL1        0.1000
      5 C          66.1051   92.2132   15.5595 C.2     1  UNL1       -0.0174
      6 C          66.7568   93.2696   14.7173 C.2     1  UNL1       -0.0038
      7 C          66.4085   93.3901   13.2633 C.2     1  UNL1        0.0101
      8 C          65.4086   92.4543   12.6515 C.2     1  UNL1        0.1209
      9 C          65.0603   92.5749   11.1974 C.2     1  UNL1        0.3788
     10 O          65.7119   93.6313   10.3552 O.2     1  UNL1       -0.2376
     11 N          64.0604   91.6390   10.5857 N.am    1  UNL1        0.0364
     12 C          61.3742   87.2714   10.6239 C.ar    1  UNL1        0.1724
     13 C          62.3741   88.2071   11.2358 C.ar    1  UNL1        0.0475
     14 C          62.4087   89.6468   10.8160 C.ar    1  UNL1        0.0896
     15 C          61.4433   90.1506    9.7844 C.ar    1  UNL1        0.0108
     16 C          60.4434   89.2148    9.1726 C.ar    1  UNL1        0.0400
     17 C          60.4088   87.7752    9.5924 C.ar    1  UNL1        0.1677
     18 O          59.4089   86.8393    8.9805 O.3     1  UNL1       -0.5029
     19 H          58.8058   87.1541    8.3361 H       1  UNL1        0.2923
     20 C          62.5056   85.2355   11.7752 C.3     1  UNL1        0.2526
     21 O          61.3396   85.8316   11.0437 O.3     1  UNL1       -0.4684
@<TRIPOS>BOND
     1    20    21    1
     2    21    12    1
     3    12    13   ar
     4    13    14   ar
     5    14     1    1
     6     1     2    1
     7     2     3    2
     8     3     4    1
     9     4     5    1
    10     5     6    2
    11     6     7    1
    12     7     8    2
    13     8     9    1
    14     9    10    2
    15     9    11    1
    16    14    15   ar
    17    15    16   ar
    18    16    17   ar
    19    17    18    1
    20    17    12   ar
    21    11     1    2
    22     8     3    1
    23    18    19    1
@<TRIPOS>MOLECULE
*****
 21 23 0 0 0
SMALL
GASTEIGER

@<TRIPOS>ATOM
      1 C          64.2452   90.8004   13.3004 C.2     1  UNL1        0.3689
      2 N          65.6963   91.0545   13.0179 N.2     1  UNL1       -0.0400
      3 C          66.5601   91.7048   14.0576 C.2     1  UNL1        0.1818
      4 C          68.0111   91.9589   13.7752 C.3     1  UNL1        0.1000
      5 C          68.8749   92.6092   14.8149 C.2     1  UNL1       -0.0174
      6 C          68.2875   93.0054   16.1370 C.2     1  UNL1       -0.0038
      7 C          66.8365   92.7514   16.4195 C.2     1  UNL1        0.0101
      8 C          65.9728   92.1010   15.3798 C.2     1  UNL1        0.1209
      9 C          64.5216   91.8469   15.6622 C.2     1  UNL1        0.3788
     10 O          63.9343   92.2432   16.9843 O.2     1  UNL1       -0.2376
     11 N          63.6579   91.1966   14.6225 N.am    1  UNL1        0.0364
     12 C          62.1207   88.0608   11.3687 C.ar    1  UNL1        0.1724
     13 C          62.9844   88.7111   12.4084 C.ar    1  UNL1        0.0475
     14 C          63.3814   90.1500   12.2606 C.ar    1  UNL1        0.0896
     15 C          62.9146   90.9387   11.0732 C.ar    1  UNL1        0.0108
     16 C          62.0508   90.2884   10.0335 C.ar    1  UNL1        0.0400
     17 C          61.6539   88.8495   10.1813 C.ar    1  UNL1        0.1677
     18 O          60.7900   88.1991    9.1415 O.3     1  UNL1       -0.5029
     19 H          60.4984   88.6918    8.3997 H       1  UNL1        0.2923
     20 C          62.2319   85.5999   10.5432 C.3     1  UNL1        0.2526
     21 O          61.7237   86.6218   11.5165 O.3     1  UNL1       -0.4684
@<TRIPOS>BOND
     1    20    21    1
     2    21    12    1
     3    12    13   ar
     4    13    14   ar
     5    14     1    1
     6     1     2    1
     7     2     3    2
     8     3     4    1
     9     4     5    1
    10     5     6    2
    11     6     7    1
    12     7     8    2
    13     8     9    1
    14     9    10    2
    15     9    11    1
    16    14    15   ar
    17    15    16   ar
    18    16    17   ar
    19    17    18    1
    20    17    12   ar
    21    11     1    2
    22     8     3    1
    23    18    19    1
