@<TRIPOS>MOLECULE
*****
 46 51 0 0 0
SMALL
GASTEIGER

@<TRIPOS>ATOM
      1 N          60.5864   92.7778    1.9194 N.am    1  UNL1       -0.1907
      2 C          61.8143   93.3845    1.3074 C.2     1  UNL1        0.3219
      3 O          63.1831   93.4121    1.9202 O.2     1  UNL1       -0.2512
      4 N          61.4330   93.9586   -0.0248 N.am    1  UNL1       -0.2223
      5 C          59.9694   93.7068   -0.2364 C.3     1  UNL1        0.1391
      6 C          58.5061   93.3847   -0.3074 C.3     1  UNL1        0.0449
      7 C          57.7063   93.7912   -1.5095 C.3     1  UNL1        0.0746
      8 N          58.3696   94.5198   -2.6404 N.3     1  UNL1       -0.2676
      9 C          59.8329   94.8419   -2.5693 C.3     1  UNL1        0.0746
     10 C          60.6328   94.4354   -1.3673 C.3     1  UNL1        0.0449
     11 C          59.4462   92.9770    0.9652 C.2     1  UNL1        0.2529
     12 O          58.0313   92.5257    1.1758 O.2     1  UNL1       -0.2724
     13 C          60.3627   90.7215    5.9158 C.ar    1  UNL1       -0.0002
     14 C          59.1736   91.4692    5.3894 C.ar    1  UNL1        0.0013
     15 C          59.2482   92.1546    4.0573 C.ar    1  UNL1        0.0154
     16 C          60.5119   92.0924    3.2515 C.ar    1  UNL1        0.0622
     17 C          61.7009   91.3448    3.7779 C.ar    1  UNL1        0.0154
     18 C          61.6263   90.6593    5.1100 C.ar    1  UNL1        0.0013
     19 C          58.7841   88.1877    6.2127 C.3     1  UNL1        0.0310
     20 C          59.4989   88.7692    7.3963 C.ar    1  UNL1       -0.0218
     21 C          59.4243   88.0837    8.7285 C.ar    1  UNL1       -0.0031
     22 C          60.1390   88.6651    9.9122 C.ar    1  UNL1        0.0137
     23 C          60.9284   89.9320    9.7637 C.ar    1  UNL1        0.0011
     24 C          61.0029   90.6175    8.4316 C.ar    1  UNL1       -0.0003
     25 C          60.2882   90.0361    7.2479 C.ar    1  UNL1       -0.0040
     26 C          60.0644   87.9797   11.2443 C.2     1  UNL1        0.0729
     27 O          60.9116   86.7717   11.5146 O.co2   1  UNL1       -0.5446
     28 O          59.1428   88.5022   12.3061 O.co2   1  UNL1       -0.5446
     29 C          62.3535   94.6611   -0.9783 C.ar    1  UNL1        0.1421
     30 C          63.0403   93.8880   -2.0648 C.ar    1  UNL1        0.0579
     31 C          63.9608   94.5907   -3.0182 C.ar    1  UNL1        0.1571
     32 N          64.1945   96.0664   -2.8851 N.ar    1  UNL1       -0.2199
     33 C          63.5076   96.8395   -1.7986 C.ar    1  UNL1        0.2000
     34 N          62.5871   96.1368   -0.8452 N.ar    1  UNL1       -0.2086
     35 C          64.6477   93.8176   -4.1047 C.3     1  UNL1        0.4350
     36 F          65.3345   93.0444   -5.1913 F       1  UNL1       -0.1644
     37 F          65.0284   95.1026   -4.7785 F       1  UNL1       -0.1644
     38 F          64.2670   92.5326   -3.4311 F       1  UNL1       -0.1644
     39 C          57.5697   94.9264   -3.8425 C.3     1  UNL1        0.1183
     40 C          57.2792   93.9273   -4.9229 C.ar    1  UNL1        0.0712
     41 N          56.1142   92.9923   -4.7864 N.ar    1  UNL1       -0.2471
     42 C          55.8238   91.9932   -5.8670 C.ar    1  UNL1        0.0985
     43 C          56.6982   91.9292   -7.0840 C.ar    1  UNL1        0.0203
     44 C          57.8632   92.8642   -7.2205 C.ar    1  UNL1       -0.0015
     45 C          58.1537   93.8632   -6.1400 C.ar    1  UNL1       -0.0069
     46 C          59.3186   94.7982   -6.2766 C.3     1  UNL1        0.0323
@<TRIPOS>UNITY_ATOM_ATTR
27 1
charge -1
@<TRIPOS>BOND
     1    19    20    1
     2    20    21   ar
     3    21    22   ar
     4    22    26    1
     5    26    27   ar
     6    26    28   ar
     7    22    23   ar
     8    23    24   ar
     9    24    25   ar
    10    25    13    1
    11    13    14   ar
    12    14    15   ar
    13    15    16   ar
    14    16     1    1
    15     1     2   am
    16     2     3    2
    17     2     4   am
    18     4    29    1
    19    29    30   ar
    20    30    31   ar
    21    31    35    1
    22    35    36    1
    23    35    37    1
    24    35    38    1
    25    31    32   ar
    26    32    33   ar
    27    33    34   ar
    28     4     5    1
    29     5     6    1
    30     6     7    1
    31     7     8    1
    32     8    39    1
    33    39    40    1
    34    40    41   ar
    35    41    42   ar
    36    42    43   ar
    37    43    44   ar
    38    44    45   ar
    39    45    46    1
    40     8     9    1
    41     9    10    1
    42     5    11    1
    43    11    12    2
    44    16    17   ar
    45    17    18   ar
    46    25    20   ar
    47    18    13   ar
    48    11     1   am
    49    34    29   ar
    50    10     5    1
    51    45    40   ar
@<TRIPOS>MOLECULE
*****
 46 51 0 0 0
SMALL
GASTEIGER

@<TRIPOS>ATOM
      1 N          60.6441   92.7265    1.9195 N.am    1  UNL1       -0.1907
      2 C          61.8902   93.2435    1.2637 C.2     1  UNL1        0.3219
      3 O          63.2781   93.1718    1.8279 O.2     1  UNL1       -0.2512
      4 N          61.5047   93.8447   -0.0553 N.am    1  UNL1       -0.2223
      5 C          60.0202   93.6994   -0.2148 C.3     1  UNL1        0.1391
      6 C          58.5359   93.4838   -0.2338 C.3     1  UNL1        0.0449
      7 C          57.7257   93.9481   -1.4077 C.3     1  UNL1        0.0746
      8 N          58.3997   94.6278   -2.5625 N.3     1  UNL1       -0.2676
      9 C          59.8840   94.8434   -2.5434 C.3     1  UNL1        0.0746
     10 C          60.6942   94.3792   -1.3696 C.3     1  UNL1        0.0449
     11 C          59.4883   93.0083    1.0057 C.2     1  UNL1        0.2529
     12 O          58.0528   92.6601    1.2666 O.2     1  UNL1       -0.2724
     13 C          60.4134   90.6883    5.9247 C.ar    1  UNL1       -0.0002
     14 C          59.2584   91.5099    5.4337 C.ar    1  UNL1        0.0013
     15 C          59.3353   92.1893    4.0986 C.ar    1  UNL1        0.0154
     16 C          60.5672   92.0471    3.2546 C.ar    1  UNL1        0.0622
     17 C          61.7220   91.2256    3.7457 C.ar    1  UNL1        0.0154
     18 C          61.6451   90.5462    5.0807 C.ar    1  UNL1        0.0013
     19 C          58.7007   88.2495    6.2703 C.3     1  UNL1        0.0310
     20 C          59.4801   88.7895    7.4326 C.ar    1  UNL1       -0.0218
     21 C          59.4032   88.1101    8.7677 C.ar    1  UNL1       -0.0031
     22 C          60.1826   88.6500    9.9301 C.ar    1  UNL1        0.0137
     23 C          61.0389   89.8695    9.7572 C.ar    1  UNL1        0.0011
     24 C          61.1158   90.5489    8.4222 C.ar    1  UNL1       -0.0003
     25 C          60.3364   90.0089    7.2598 C.ar    1  UNL1       -0.0040
     26 C          60.1057   87.9706   11.2651 C.2     1  UNL1        0.0729
     27 O          59.2454   88.5459   12.3509 O.co2   1  UNL1       -0.5446
     28 O          60.8891   86.7160   11.5144 O.co2   1  UNL1       -0.5446
     29 C          62.4393   94.4798   -1.0417 C.ar    1  UNL1        0.1421
     30 C          63.0726   93.6483   -2.1176 C.ar    1  UNL1        0.0579
     31 C          64.0073   94.2835   -3.1039 C.ar    1  UNL1        0.1571
     32 N          64.3087   95.7502   -3.0145 N.ar    1  UNL1       -0.2199
     33 C          63.6755   96.5817   -1.9386 C.ar    1  UNL1        0.2000
     34 N          62.7408   95.9465   -0.9522 N.ar    1  UNL1       -0.2086
     35 C          64.6406   93.4520   -4.1798 C.3     1  UNL1        0.4350
     36 F          65.2739   92.6205   -5.2558 F       1  UNL1       -0.1644
     37 F          63.9989   92.2227   -3.6075 F       1  UNL1       -0.1644
     38 F          65.2822   94.6811   -4.7521 F       1  UNL1       -0.1644
     39 C          57.5894   95.0921   -3.7364 C.3     1  UNL1        0.1183
     40 C          56.1924   95.5980   -3.5303 C.ar    1  UNL1        0.0712
     41 N          55.8438   96.3499   -2.2801 N.ar    1  UNL1       -0.2471
     42 C          54.4467   96.8558   -2.0742 C.ar    1  UNL1        0.0985
     43 C          53.3984   96.6098   -3.1183 C.ar    1  UNL1        0.0203
     44 C          53.7470   95.8578   -4.3686 C.ar    1  UNL1       -0.0015
     45 C          55.1440   95.3519   -4.5746 C.ar    1  UNL1       -0.0069
     46 C          55.4926   94.6000   -5.8248 C.3     1  UNL1        0.0323
@<TRIPOS>UNITY_ATOM_ATTR
27 1
charge -1
@<TRIPOS>BOND
     1    19    20    1
     2    20    21   ar
     3    21    22   ar
     4    22    26    1
     5    26    27   ar
     6    26    28   ar
     7    22    23   ar
     8    23    24   ar
     9    24    25   ar
    10    25    13    1
    11    13    14   ar
    12    14    15   ar
    13    15    16   ar
    14    16     1    1
    15     1     2   am
    16     2     3    2
    17     2     4   am
    18     4    29    1
    19    29    30   ar
    20    30    31   ar
    21    31    35    1
    22    35    36    1
    23    35    37    1
    24    35    38    1
    25    31    32   ar
    26    32    33   ar
    27    33    34   ar
    28     4     5    1
    29     5     6    1
    30     6     7    1
    31     7     8    1
    32     8    39    1
    33    39    40    1
    34    40    41   ar
    35    41    42   ar
    36    42    43   ar
    37    43    44   ar
    38    44    45   ar
    39    45    46    1
    40     8     9    1
    41     9    10    1
    42     5    11    1
    43    11    12    2
    44    16    17   ar
    45    17    18   ar
    46    25    20   ar
    47    18    13   ar
    48    11     1   am
    49    34    29   ar
    50    10     5    1
    51    45    40   ar
