@<TRIPOS>MOLECULE
*****
 53 59 0 0 0
SMALL
GASTEIGER

@<TRIPOS>ATOM
      1 N          61.3366   86.6537    9.2452 N.ar    1  UNL1       -0.1285
      2 N          62.1237   85.4467    8.8285 N.ar    1  UNL1       -0.0406
      3 N          62.7294   84.8406   10.0596 N.ar    1  UNL1       -0.1074
      4 C          62.3168   85.6730   11.2373 C.ar    1  UNL1        0.2075
      5 N          61.4559   86.7936   10.7339 N.ar    1  UNL1       -0.1253
      6 C          59.0236   89.3770    6.5096 C.ar    1  UNL1       -0.0207
      7 C          59.8096   89.9515    7.6507 C.ar    1  UNL1       -0.0026
      8 C          60.5807   89.0437    8.5626 C.ar    1  UNL1        0.0206
      9 C          60.5656   87.5614    8.3334 C.ar    1  UNL1        0.1045
     10 C          59.7796   86.9869    7.1923 C.ar    1  UNL1        0.0206
     11 C          59.0086   87.8946    6.2805 C.ar    1  UNL1       -0.0026
     12 C          58.2526   90.2847    5.5978 C.3     1  UNL1        0.0437
     13 C          58.7381   91.6810    5.3434 C.3     1  UNL1        0.0771
     14 C          62.9466   93.5429    0.2373 C.ar    1  UNL1        0.1721
     15 C          63.1726   92.6467    1.4187 C.ar    1  UNL1        0.0356
     16 C          62.0640   92.4052    2.3999 C.ar    1  UNL1       -0.0202
     17 C          60.7294   93.0600    2.1997 C.ar    1  UNL1       -0.0068
     18 C          60.5034   93.9563    1.0182 C.ar    1  UNL1        0.0368
     19 C          61.6120   94.1977    0.0371 C.ar    1  UNL1        0.1721
     20 C          59.6208   92.8186    3.1808 C.3     1  UNL1        0.0990
     21 N          59.8468   91.9224    4.3622 N.3     1  UNL1       -0.2683
     22 C          61.1814   91.2677    4.5625 C.3     1  UNL1        0.0771
     23 C          62.2900   91.5090    3.5813 C.3     1  UNL1        0.0435
     24 C          64.7595   95.1084   -0.7689 C.3     1  UNL1        0.2526
     25 O          64.0552   93.7843   -0.7439 O.3     1  UNL1       -0.4684
     26 O          61.3860   95.0939   -1.1444 O.3     1  UNL1       -0.4684
     27 C          60.9971   94.5058   -2.4683 C.3     1  UNL1        0.2526
     28 C          62.6979   85.4279   12.6672 C.ar    1  UNL1        0.0560
     29 C          62.3237   84.1367   13.3323 C.ar    1  UNL1        0.0444
     30 C          62.7049   83.8915   14.7622 C.ar    1  UNL1        0.1726
     31 C          63.4604   84.9377   15.5270 C.ar    1  UNL1        0.1736
     32 C          63.8346   86.2290   14.8618 C.ar    1  UNL1        0.0548
     33 C          63.4534   86.4741   13.4319 C.ar    1  UNL1        0.0569
     34 N          63.8277   87.7654   12.7667 N.am    1  UNL1       -0.2777
     35 C          63.8166   89.0439   13.5511 C.2     1  UNL1        0.2843
     36 O          63.4313   89.0311   15.0007 O.2     1  UNL1       -0.2665
     37 H          64.0805   87.7739   11.8152 H       1  UNL1        0.1553
     38 C          64.1908   90.3353   12.8860 C.ar    1  UNL1        0.2017
     39 C          63.6790   90.6464   11.5108 C.ar    1  UNL1        0.0843
     40 C          64.0532   91.9377   10.8456 C.ar    1  UNL1        0.2018
     41 O          63.5413   92.2488    9.4703 O.2     1  UNL1       -0.2864
     42 C          64.9392   92.9179   11.5557 C.ar    1  UNL1        0.0740
     43 C          65.3134   94.2092   10.8905 C.ar    1  UNL1        0.0129
     44 C          66.1995   95.1894   11.6005 C.ar    1  UNL1        0.0349
     45 BR         66.5737   96.4808   10.9354 Br      1  UNL1       -0.0490
     46 C          66.7113   94.8783   12.9757 C.ar    1  UNL1        0.0098
     47 C          66.3371   93.5869   13.6410 C.ar    1  UNL1        0.0381
     48 C          65.4510   92.6067   12.9309 C.ar    1  UNL1        0.1485
     49 O          65.0768   91.3155   13.5961 O.2     1  UNL1       -0.4487
     50 O          62.3307   82.6002   15.4274 O.3     1  UNL1       -0.4684
     51 C          61.8768   81.4343   14.5999 C.3     1  UNL1        0.2526
     52 O          63.8416   84.6926   16.9568 O.3     1  UNL1       -0.4683
     53 C          63.4095   85.6544   18.0236 C.3     1  UNL1        0.2526
@<TRIPOS>BOND
     1    24    25    1
     2    25    14    1
     3    14    15   ar
     4    15    16   ar
     5    16    17   ar
     6    17    18   ar
     7    18    19   ar
     8    19    26    1
     9    26    27    1
    10    17    20    1
    11    20    21    1
    12    21    13    1
    13    13    12    1
    14    12     6    1
    15     6     7   ar
    16     7     8   ar
    17     8     9   ar
    18     9     1    1
    19     1     2   ar
    20     2     3   ar
    21     3     4   ar
    22     4    28    1
    23    28    29   ar
    24    29    30   ar
    25    30    50    1
    26    50    51    1
    27    30    31   ar
    28    31    52    1
    29    52    53    1
    30    31    32   ar
    31    32    33   ar
    32    33    34    1
    33    34    35   am
    34    35    36    2
    35    35    38    1
    36    38    39   ar
    37    39    40   ar
    38    40    41    2
    39    40    42   ar
    40    42    43   ar
    41    43    44   ar
    42    44    45    1
    43    44    46   ar
    44    46    47   ar
    45    47    48   ar
    46    48    49   ar
    47     4     5   ar
    48     9    10   ar
    49    10    11   ar
    50    21    22    1
    51    22    23    1
    52    19    14   ar
    53    11     6   ar
    54    23    16    1
    55     5     1   ar
    56    33    28   ar
    57    49    38   ar
    58    48    42   ar
    59    34    37    1
@<TRIPOS>MOLECULE
*****
 53 59 0 0 0
SMALL
GASTEIGER

@<TRIPOS>ATOM
      1 N          61.3579   88.2014   10.2246 N.ar    1  UNL1       -0.1285
      2 N          62.0241   89.0795   11.2420 N.ar    1  UNL1       -0.0406
      3 N          62.6541   88.1947   12.2766 N.ar    1  UNL1       -0.1074
      4 C          62.3772   86.7697   11.8985 C.ar    1  UNL1        0.2075
      5 N          61.5762   86.7739   10.6304 N.ar    1  UNL1       -0.1253
      6 C          59.1009   89.6037    6.5929 C.ar    1  UNL1       -0.0207
      7 C          59.8464   90.5916    7.4403 C.ar    1  UNL1       -0.0026
      8 C          60.5988   90.1242    8.6510 C.ar    1  UNL1        0.0206
      9 C          60.6056   88.6688    9.0141 C.ar    1  UNL1        0.1045
     10 C          59.8600   87.6809    8.1667 C.ar    1  UNL1        0.0206
     11 C          59.1077   88.1482    6.9561 C.ar    1  UNL1       -0.0026
     12 C          58.3485   90.0710    5.3824 C.3     1  UNL1        0.0437
     13 C          58.5392   91.4695    4.8744 C.3     1  UNL1        0.0771
     14 C          63.2576   93.7699    0.4365 C.ar    1  UNL1        0.1721
     15 C          63.3813   92.8401    1.6070 C.ar    1  UNL1        0.0356
     16 C          62.1708   92.4974    2.4239 C.ar    1  UNL1       -0.0202
     17 C          60.8365   93.0846    2.0702 C.ar    1  UNL1       -0.0068
     18 C          60.7129   94.0144    0.8996 C.ar    1  UNL1        0.0368
     19 C          61.9234   94.3570    0.0828 C.ar    1  UNL1        0.1721
     20 C          59.6260   92.7419    2.8870 C.3     1  UNL1        0.0990
     21 N          59.7498   91.8122    4.0575 N.3     1  UNL1       -0.2683
     22 C          61.0840   91.2250    4.4112 C.3     1  UNL1        0.0771
     23 C          62.2945   91.5677    3.5944 C.3     1  UNL1        0.0435
     24 C          65.2228   95.3799   -0.1076 C.3     1  UNL1        0.2526
     25 O          64.4681   94.1126   -0.3804 O.3     1  UNL1       -0.4684
     26 O          61.7997   95.2869   -1.0878 O.3     1  UNL1       -0.4684
     27 C          61.6193   94.7327   -2.4699 C.3     1  UNL1        0.2526
     28 C          62.8232   85.5541   12.6557 C.ar    1  UNL1        0.0560
     29 C          62.1768   84.2267   12.3910 C.ar    1  UNL1        0.0444
     30 C          62.6228   83.0110   13.1481 C.ar    1  UNL1        0.1726
     31 C          63.7151   83.1228   14.1700 C.ar    1  UNL1        0.1736
     32 C          64.3615   84.4502   14.4348 C.ar    1  UNL1        0.0548
     33 C          63.9155   85.6658   13.6776 C.ar    1  UNL1        0.0569
     34 N          64.5619   86.9934   13.9423 N.am    1  UNL1       -0.2777
     35 C          63.9460   87.9448   14.9249 C.2     1  UNL1        0.2843
     36 O          62.6837   87.5688   15.6427 O.2     1  UNL1       -0.2665
     37 H          65.3904   87.2401   13.4712 H       1  UNL1        0.1553
     38 C          64.5923   89.2722   15.1897 C.ar    1  UNL1        0.2017
     39 C          63.8342   90.3442   15.9150 C.ar    1  UNL1        0.0843
     40 C          64.4804   91.6716   16.1798 C.ar    1  UNL1        0.2018
     41 O          63.7222   92.7436   16.9052 O.2     1  UNL1       -0.2864
     42 C          65.8849   91.9271   15.7192 C.ar    1  UNL1        0.0740
     43 C          66.5312   93.2547   15.9840 C.ar    1  UNL1        0.0129
     44 C          67.9357   93.5102   15.5235 C.ar    1  UNL1        0.0349
     45 BR         68.5821   94.8377   15.7882 Br      1  UNL1       -0.0490
     46 C          68.6939   92.4383   14.7981 C.ar    1  UNL1        0.0098
     47 C          68.0476   91.1107   14.5333 C.ar    1  UNL1        0.0381
     48 C          66.6431   90.8552   14.9939 C.ar    1  UNL1        0.1485
     49 O          65.9968   89.5278   14.7291 O.2     1  UNL1       -0.4487
     50 O          61.9764   81.6836   12.8833 O.3     1  UNL1       -0.4684
     51 C          61.0732   81.0707   13.9123 C.3     1  UNL1        0.2526
     52 O          64.1611   81.9072   14.9272 O.3     1  UNL1       -0.4683
     53 C          64.6112   80.6843   14.1845 C.3     1  UNL1        0.2526
@<TRIPOS>BOND
     1    24    25    1
     2    25    14    1
     3    14    15   ar
     4    15    16   ar
     5    16    17   ar
     6    17    18   ar
     7    18    19   ar
     8    19    26    1
     9    26    27    1
    10    17    20    1
    11    20    21    1
    12    21    13    1
    13    13    12    1
    14    12     6    1
    15     6     7   ar
    16     7     8   ar
    17     8     9   ar
    18     9     1    1
    19     1     2   ar
    20     2     3   ar
    21     3     4   ar
    22     4    28    1
    23    28    29   ar
    24    29    30   ar
    25    30    50    1
    26    50    51    1
    27    30    31   ar
    28    31    52    1
    29    52    53    1
    30    31    32   ar
    31    32    33   ar
    32    33    34    1
    33    34    35   am
    34    35    36    2
    35    35    38    1
    36    38    39   ar
    37    39    40   ar
    38    40    41    2
    39    40    42   ar
    40    42    43   ar
    41    43    44   ar
    42    44    45    1
    43    44    46   ar
    44    46    47   ar
    45    47    48   ar
    46    48    49   ar
    47     4     5   ar
    48     9    10   ar
    49    10    11   ar
    50    21    22    1
    51    22    23    1
    52    19    14   ar
    53    11     6   ar
    54    23    16    1
    55     5     1   ar
    56    33    28   ar
    57    49    38   ar
    58    48    42   ar
    59    34    37    1
@<TRIPOS>MOLECULE
*****
 53 59 0 0 0
SMALL
GASTEIGER

@<TRIPOS>ATOM
      1 N          62.1502   85.6723    9.2538 N.ar    1  UNL1       -0.1285
      2 N          63.5470   85.3199    8.8358 N.ar    1  UNL1       -0.0406
      3 N          63.9555   84.0833    9.5800 N.ar    1  UNL1       -0.1074
      4 C          62.8111   83.6714   10.4580 C.ar    1  UNL1        0.2075
      5 N          61.6954   84.6534   10.2564 N.ar    1  UNL1       -0.1253
      6 C          59.7461   89.1715    7.7619 C.ar    1  UNL1       -0.0207
      7 C          59.5411   87.8112    7.1640 C.ar    1  UNL1       -0.0026
      8 C          60.3425   86.6448    7.6613 C.ar    1  UNL1        0.0206
      9 C          61.3488   86.8387    8.7565 C.ar    1  UNL1        0.1045
     10 C          61.5539   88.1990    9.3545 C.ar    1  UNL1        0.0206
     11 C          60.7526   89.3654    8.8572 C.ar    1  UNL1       -0.0026
     12 C          58.9448   90.3379    7.2646 C.3     1  UNL1        0.0437
     13 C          58.6346   90.4660    5.8026 C.3     1  UNL1        0.0771
     14 C          62.2224   94.0044    1.1275 C.ar    1  UNL1        0.1721
     15 C          62.6488   92.9351    2.0892 C.ar    1  UNL1        0.0356
     16 C          61.6452   92.3178    3.0176 C.ar    1  UNL1       -0.0202
     17 C          60.2153   92.7698    2.9842 C.ar    1  UNL1       -0.0068
     18 C          59.7890   93.8391    2.0225 C.ar    1  UNL1        0.0368
     19 C          60.7925   94.4564    1.0942 C.ar    1  UNL1        0.1721
     20 C          59.2118   92.1525    3.9126 C.3     1  UNL1        0.0990
     21 N          59.6381   91.0833    4.8743 N.3     1  UNL1       -0.2683
     22 C          61.0680   90.6313    4.9076 C.3     1  UNL1        0.0771
     23 C          62.0716   91.2486    3.9793 C.3     1  UNL1        0.0435
     24 C          63.6605   93.8847   -1.0330 C.3     1  UNL1        0.2526
     25 O          63.2260   94.6217    0.1991 O.3     1  UNL1       -0.4684
     26 O          60.3662   95.5257    0.1324 O.3     1  UNL1       -0.4684
     27 C          60.1441   95.1896   -1.3125 C.3     1  UNL1        0.2526
     28 C          62.7868   82.4856   11.3764 C.ar    1  UNL1        0.0560
     29 C          62.7889   81.0972   10.8088 C.ar    1  UNL1        0.0444
     30 C          62.7646   79.9115   11.7272 C.ar    1  UNL1        0.1726
     31 C          62.7382   80.1142   13.2132 C.ar    1  UNL1        0.1736
     32 C          62.7361   81.5026   13.7808 C.ar    1  UNL1        0.0548
     33 C          62.7604   82.6883   12.8624 C.ar    1  UNL1        0.0569
     34 N          62.7584   84.0768   13.4301 N.am    1  UNL1       -0.2777
     35 C          63.5584   84.3851   14.6609 C.2     1  UNL1        0.2843
     36 O          64.3605   83.3049   15.3241 O.2     1  UNL1       -0.2665
     37 H          62.2319   84.7858   12.9948 H       1  UNL1        0.1553
     38 C          63.5564   85.7735   15.2286 C.ar    1  UNL1        0.2017
     39 C          63.0891   86.0082   16.6344 C.ar    1  UNL1        0.0843
     40 C          63.0870   87.3966   17.2021 C.ar    1  UNL1        0.2018
     41 O          62.6197   87.6314   18.6081 O.2     1  UNL1       -0.2864
     42 C          63.5523   88.5503   16.3639 C.ar    1  UNL1        0.0740
     43 C          63.5502   89.9387   16.9317 C.ar    1  UNL1        0.0129
     44 C          64.0155   91.0924   16.0935 C.ar    1  UNL1        0.0349
     45 BR         64.0135   92.4809   16.6611 Br      1  UNL1       -0.0490
     46 C          64.4828   90.8577   14.6876 C.ar    1  UNL1        0.0098
     47 C          64.4849   89.4692   14.1199 C.ar    1  UNL1        0.0381
     48 C          64.0196   88.3155   14.9581 C.ar    1  UNL1        0.1485
     49 O          64.0217   86.9272   14.3904 O.2     1  UNL1       -0.4487
     50 O          62.7667   78.5231   11.1595 O.3     1  UNL1       -0.4684
     51 C          62.9256   78.3170    9.6822 C.3     1  UNL1        0.2526
     52 O          62.7139   78.9284   14.1315 O.3     1  UNL1       -0.4683
     53 C          61.4356   78.1746   14.3494 C.3     1  UNL1        0.2526
@<TRIPOS>BOND
     1    24    25    1
     2    25    14    1
     3    14    15   ar
     4    15    16   ar
     5    16    17   ar
     6    17    18   ar
     7    18    19   ar
     8    19    26    1
     9    26    27    1
    10    17    20    1
    11    20    21    1
    12    21    13    1
    13    13    12    1
    14    12     6    1
    15     6     7   ar
    16     7     8   ar
    17     8     9   ar
    18     9     1    1
    19     1     2   ar
    20     2     3   ar
    21     3     4   ar
    22     4    28    1
    23    28    29   ar
    24    29    30   ar
    25    30    50    1
    26    50    51    1
    27    30    31   ar
    28    31    52    1
    29    52    53    1
    30    31    32   ar
    31    32    33   ar
    32    33    34    1
    33    34    35   am
    34    35    36    2
    35    35    38    1
    36    38    39   ar
    37    39    40   ar
    38    40    41    2
    39    40    42   ar
    40    42    43   ar
    41    43    44   ar
    42    44    45    1
    43    44    46   ar
    44    46    47   ar
    45    47    48   ar
    46    48    49   ar
    47     4     5   ar
    48     9    10   ar
    49    10    11   ar
    50    21    22    1
    51    22    23    1
    52    19    14   ar
    53    11     6   ar
    54    23    16    1
    55     5     1   ar
    56    33    28   ar
    57    49    38   ar
    58    48    42   ar
    59    34    37    1
@<TRIPOS>MOLECULE
*****
 53 59 0 0 0
SMALL
GASTEIGER

@<TRIPOS>ATOM
      1 N          60.3467   87.8872   10.5786 N.ar    1  UNL1       -0.1285
      2 N          59.7430   88.3171   11.8827 N.ar    1  UNL1       -0.0406
      3 N          60.3695   87.5017   12.9747 N.ar    1  UNL1       -0.1074
      4 C          61.3606   86.5678   12.3455 C.ar    1  UNL1        0.2075
      5 N          61.3465   86.8061   10.8647 N.ar    1  UNL1       -0.1253
      6 C          59.3364   89.5492    6.5207 C.ar    1  UNL1       -0.0207
      7 C          60.0243   90.4138    7.5352 C.ar    1  UNL1       -0.0026
      8 C          60.3610   89.8598    8.8879 C.ar    1  UNL1        0.0206
      9 C          60.0100   88.4412    9.2260 C.ar    1  UNL1        0.1045
     10 C          59.3221   87.5766    8.2114 C.ar    1  UNL1        0.0206
     11 C          58.9853   88.1306    6.8588 C.ar    1  UNL1       -0.0026
     12 C          58.9996   90.1032    5.1681 C.3     1  UNL1        0.0437
     13 C          59.2399   91.5536    4.8705 C.3     1  UNL1        0.0771
     14 C          63.5222   94.2309    0.2075 C.ar    1  UNL1        0.1721
     15 C          63.7380   93.1663    1.2419 C.ar    1  UNL1        0.0356
     16 C          62.6135   92.7631    2.1491 C.ar    1  UNL1       -0.0202
     17 C          61.2732   93.4245    2.0218 C.ar    1  UNL1       -0.0068
     18 C          61.0574   94.4891    0.9872 C.ar    1  UNL1        0.0368
     19 C          62.1819   94.8922    0.0801 C.ar    1  UNL1        0.1721
     20 C          60.1487   93.0214    2.9289 C.3     1  UNL1        0.0990
     21 N          60.3644   91.9568    3.9634 N.3     1  UNL1       -0.2683
     22 C          61.7047   91.2955    4.0907 C.3     1  UNL1        0.0771
     23 C          62.8292   91.6986    3.1836 C.3     1  UNL1        0.0435
     24 C          65.3953   95.9088   -0.4453 C.3     1  UNL1        0.2526
     25 O          64.6468   94.6341   -0.6997 O.3     1  UNL1       -0.4684
     26 O          61.9662   95.9568   -0.9544 O.3     1  UNL1       -0.4684
     27 C          61.7718   95.5768   -2.3924 C.3     1  UNL1        0.2526
     28 C          62.2155   85.5707   13.0700 C.ar    1  UNL1        0.0560
     29 C          61.6801   84.2024   13.3716 C.ar    1  UNL1        0.0444
     30 C          62.5350   83.2054   14.0961 C.ar    1  UNL1        0.1726
     31 C          63.9255   83.5766   14.5190 C.ar    1  UNL1        0.1736
     32 C          64.4609   84.9449   14.2174 C.ar    1  UNL1        0.0548
     33 C          63.6060   85.9420   13.4929 C.ar    1  UNL1        0.0569
     34 N          64.1415   87.3103   13.1913 N.am    1  UNL1       -0.2777
     35 C          64.0324   88.4009   14.2154 C.2     1  UNL1        0.2843
     36 O          63.3880   88.1231   15.5411 O.2     1  UNL1       -0.2665
     37 H          64.5644   87.4927   12.3212 H       1  UNL1        0.1553
     38 C          64.5679   89.7692   13.9138 C.ar    1  UNL1        0.2017
     39 C          65.2521   90.5605   14.9888 C.ar    1  UNL1        0.0843
     40 C          65.7876   91.9288   14.6874 C.ar    1  UNL1        0.2018
     41 O          66.4719   92.7202   15.7624 O.2     1  UNL1       -0.2864
     42 C          65.6388   92.5059   13.3108 C.ar    1  UNL1        0.0740
     43 C          66.1743   93.8743   13.0093 C.ar    1  UNL1        0.0129
     44 C          66.0255   94.4513   11.6327 C.ar    1  UNL1        0.0349
     45 BR         66.5609   95.8197   11.3312 Br      1  UNL1       -0.0490
     46 C          65.3412   93.6601   10.5577 C.ar    1  UNL1        0.0098
     47 C          64.8057   92.2917   10.8593 C.ar    1  UNL1        0.0381
     48 C          64.9545   91.7146   12.2358 C.ar    1  UNL1        0.1485
     49 O          64.4191   90.3463   12.5373 O.2     1  UNL1       -0.4487
     50 O          61.9995   81.8371   14.3977 O.3     1  UNL1       -0.4684
     51 C          61.7545   80.8649   13.2820 C.3     1  UNL1        0.2526
     52 O          64.7804   82.5796   15.2435 O.3     1  UNL1       -0.4683
     53 C          65.0226   81.2251   14.6464 C.3     1  UNL1        0.2526
@<TRIPOS>BOND
     1    24    25    1
     2    25    14    1
     3    14    15   ar
     4    15    16   ar
     5    16    17   ar
     6    17    18   ar
     7    18    19   ar
     8    19    26    1
     9    26    27    1
    10    17    20    1
    11    20    21    1
    12    21    13    1
    13    13    12    1
    14    12     6    1
    15     6     7   ar
    16     7     8   ar
    17     8     9   ar
    18     9     1    1
    19     1     2   ar
    20     2     3   ar
    21     3     4   ar
    22     4    28    1
    23    28    29   ar
    24    29    30   ar
    25    30    50    1
    26    50    51    1
    27    30    31   ar
    28    31    52    1
    29    52    53    1
    30    31    32   ar
    31    32    33   ar
    32    33    34    1
    33    34    35   am
    34    35    36    2
    35    35    38    1
    36    38    39   ar
    37    39    40   ar
    38    40    41    2
    39    40    42   ar
    40    42    43   ar
    41    43    44   ar
    42    44    45    1
    43    44    46   ar
    44    46    47   ar
    45    47    48   ar
    46    48    49   ar
    47     4     5   ar
    48     9    10   ar
    49    10    11   ar
    50    21    22    1
    51    22    23    1
    52    19    14   ar
    53    11     6   ar
    54    23    16    1
    55     5     1   ar
    56    33    28   ar
    57    49    38   ar
    58    48    42   ar
    59    34    37    1
@<TRIPOS>MOLECULE
*****
 53 59 0 0 0
SMALL
GASTEIGER

@<TRIPOS>ATOM
      1 N          60.8671   89.3237    8.7638 N.ar    1  UNL1       -0.1285
      2 N          60.6648   87.9519    9.3356 N.ar    1  UNL1       -0.0406
      3 N          61.4621   87.8556   10.6025 N.ar    1  UNL1       -0.1074
      4 C          62.1572   89.1680   10.8136 C.ar    1  UNL1        0.2075
      5 N          61.7894   90.0753    9.6772 N.ar    1  UNL1       -0.1253
      6 C          59.0294   90.9066    4.9733 C.ar    1  UNL1       -0.0207
      7 C          58.1745   90.1997    5.9830 C.ar    1  UNL1       -0.0026
      8 C          58.7871   89.6721    7.2465 C.ar    1  UNL1        0.0206
      9 C          60.2545   89.8513    7.5003 C.ar    1  UNL1        0.1045
     10 C          61.1094   90.5582    6.4906 C.ar    1  UNL1        0.0206
     11 C          60.4969   91.0858    5.2271 C.ar    1  UNL1       -0.0026
     12 C          58.4169   91.4342    3.7098 C.3     1  UNL1        0.0437
     13 C          58.8021   92.7909    3.1992 C.3     1  UNL1        0.0771
     14 C          63.5849   93.8668   -1.6193 C.ar    1  UNL1        0.1721
     15 C          62.2034   93.2910   -1.7183 C.ar    1  UNL1        0.0356
     16 C          61.3530   93.1660   -0.4889 C.ar    1  UNL1       -0.0202
     17 C          61.8842   93.6168    0.8394 C.ar    1  UNL1       -0.0068
     18 C          63.2658   94.1927    0.9384 C.ar    1  UNL1        0.0368
     19 C          64.1161   94.3177   -0.2909 C.ar    1  UNL1        0.1721
     20 C          61.0340   93.4918    2.0688 C.3     1  UNL1        0.0990
     21 N          59.6525   92.9160    1.9698 N.3     1  UNL1       -0.2683
     22 C          59.1213   92.4651    0.6414 C.3     1  UNL1        0.0771
     23 C          59.9715   92.5901   -0.5879 C.3     1  UNL1        0.0435
     24 C          64.2612   95.1669   -3.7647 C.3     1  UNL1        0.2526
     25 O          64.4352   93.9919   -2.8487 O.3     1  UNL1       -0.4684
     26 O          65.4977   94.8936   -0.1920 O.3     1  UNL1       -0.4684
     27 C          65.7173   96.3596   -0.4210 C.3     1  UNL1        0.2526
     28 C          63.0613   89.5126   11.9599 C.ar    1  UNL1        0.0560
     29 C          63.4241   90.9436   12.2250 C.ar    1  UNL1        0.0444
     30 C          64.3282   91.2881   13.3713 C.ar    1  UNL1        0.1726
     31 C          64.8695   90.2015   14.2524 C.ar    1  UNL1        0.1736
     32 C          64.5066   88.7705   13.9873 C.ar    1  UNL1        0.0548
     33 C          63.6025   88.4260   12.8410 C.ar    1  UNL1        0.0569
     34 N          63.2397   86.9948   12.5759 N.am    1  UNL1       -0.2777
     35 C          63.8331   85.9027   13.4157 C.2     1  UNL1        0.2843
     36 O          64.7892   86.2417   14.5205 O.2     1  UNL1       -0.2665
     37 H          62.6121   86.7723   11.8507 H       1  UNL1        0.1553
     38 C          63.4702   84.4716   13.1506 C.ar    1  UNL1        0.2017
     39 C          62.7948   83.6595   14.2155 C.ar    1  UNL1        0.0843
     40 C          62.4319   82.2284   13.9505 C.ar    1  UNL1        0.2018
     41 O          61.7564   81.4163   15.0156 O.2     1  UNL1       -0.2864
     42 C          62.7446   81.6094   12.6205 C.ar    1  UNL1        0.0740
     43 C          62.3817   80.1782   12.3554 C.ar    1  UNL1        0.0129
     44 C          62.6944   79.5592   11.0253 C.ar    1  UNL1        0.0349
     45 BR         62.3316   78.1281   10.7602 Br      1  UNL1       -0.0490
     46 C          63.3699   80.3713    9.9604 C.ar    1  UNL1        0.0098
     47 C          63.7327   81.8025   10.2254 C.ar    1  UNL1        0.0381
     48 C          63.4201   82.4215   11.5555 C.ar    1  UNL1        0.1485
     49 O          63.7829   83.8526   11.8205 O.2     1  UNL1       -0.4487
     50 O          64.6910   92.7192   13.6364 O.3     1  UNL1       -0.4684
     51 C          65.7971   93.3690   12.8588 C.3     1  UNL1        0.2526
     52 O          65.7736   90.5461   15.3987 O.3     1  UNL1       -0.4683
     53 C          67.0969   91.2027   15.1390 C.3     1  UNL1        0.2526
@<TRIPOS>BOND
     1    24    25    1
     2    25    14    1
     3    14    15   ar
     4    15    16   ar
     5    16    17   ar
     6    17    18   ar
     7    18    19   ar
     8    19    26    1
     9    26    27    1
    10    17    20    1
    11    20    21    1
    12    21    13    1
    13    13    12    1
    14    12     6    1
    15     6     7   ar
    16     7     8   ar
    17     8     9   ar
    18     9     1    1
    19     1     2   ar
    20     2     3   ar
    21     3     4   ar
    22     4    28    1
    23    28    29   ar
    24    29    30   ar
    25    30    50    1
    26    50    51    1
    27    30    31   ar
    28    31    52    1
    29    52    53    1
    30    31    32   ar
    31    32    33   ar
    32    33    34    1
    33    34    35   am
    34    35    36    2
    35    35    38    1
    36    38    39   ar
    37    39    40   ar
    38    40    41    2
    39    40    42   ar
    40    42    43   ar
    41    43    44   ar
    42    44    45    1
    43    44    46   ar
    44    46    47   ar
    45    47    48   ar
    46    48    49   ar
    47     4     5   ar
    48     9    10   ar
    49    10    11   ar
    50    21    22    1
    51    22    23    1
    52    19    14   ar
    53    11     6   ar
    54    23    16    1
    55     5     1   ar
    56    33    28   ar
    57    49    38   ar
    58    48    42   ar
    59    34    37    1
