@<TRIPOS>MOLECULE
*****
 22 23 0 0 0
SMALL
GASTEIGER

@<TRIPOS>ATOM
      1 C          63.7171   85.8891   13.6165 C.3     1  UNL1        0.2131
      2 O          63.9529   87.3667   13.7213 O.3     1  UNL1       -0.4451
      3 C          63.3909   88.2914   12.6826 C.2     1  UNL1        0.3410
      4 O          63.6267   89.7690   12.7873 O.2     1  UNL1       -0.2449
      5 C          62.5931   87.7385   11.5389 C.ar    1  UNL1        0.0753
      6 C          62.0311   88.6632   10.5001 C.ar    1  UNL1        0.0093
      7 C          61.2333   88.1102    9.3566 C.ar    1  UNL1        0.0371
      8 C          60.9975   86.6326    9.2518 C.ar    1  UNL1        0.1385
      9 C          61.5595   85.7079   10.2906 C.ar    1  UNL1        0.0364
     10 C          62.3573   86.2608   11.4341 C.ar    1  UNL1        0.0301
     11 C          62.9193   85.3361   12.4730 C.3     1  UNL1        0.2310
     12 O          60.1997   86.0797    8.1082 O.3     1  UNL1       -0.4714
     13 C          58.9787   86.8050    7.6255 C.3     1  UNL1        0.2525
     14 C          64.2791   84.9644   14.6554 C.3     1  UNL1        0.0478
     15 C          64.1336   85.2949   16.1112 C.3     1  UNL1        0.0038
     16 C          62.7929   85.6804   16.6625 C.3     1  UNL1        0.0001
     17 C          63.0443   88.2371   17.0495 C.3     1  UNL1        0.0000
     18 C          62.6660   86.8774   17.5574 C.3     1  UNL1        0.0000
     19 O          62.6835   83.8585   12.3682 O.3     1  UNL1       -0.4439
     20 C          63.7550   82.9653   11.8166 C.2     1  UNL1        0.3179
     21 C          64.1752   83.0955   10.3826 C.3     1  UNL1        0.1212
     22 O          64.4061   81.9419   12.6990 O.2     1  UNL1       -0.2501
@<TRIPOS>BOND
     1    17    18    1
     2    18    16    1
     3    16    15    1
     4    15    14    1
     5     1    14    1
     6     1     2    1
     7     2     3    1
     8     3     4    2
     9     3     5    1
    10     5     6   ar
    11     6     7   ar
    12     7     8   ar
    13     8    12    1
    14    12    13    1
    15     8     9   ar
    16     9    10   ar
    17    10    11    1
    18    11    19    1
    19    19    20    1
    20    20    21    1
    21    20    22    2
    22    11     1    1
    23    10     5   ar
@<TRIPOS>MOLECULE
*****
 22 23 0 0 0
SMALL
GASTEIGER

@<TRIPOS>ATOM
      1 C          63.4842   83.8450   10.8563 C.3     1  UNL1        0.2131
      2 O          63.5254   83.8417    9.3569 O.3     1  UNL1       -0.4451
      3 C          62.7732   84.8839    8.5836 C.2     1  UNL1        0.3410
      4 O          62.8144   84.8806    7.0842 O.2     1  UNL1       -0.2449
      5 C          61.9798   85.9295    9.3098 C.ar    1  UNL1        0.0753
      6 C          61.2276   86.9717    8.5366 C.ar    1  UNL1        0.0093
      7 C          60.4342   88.0173    9.2627 C.ar    1  UNL1        0.0371
      8 C          60.3930   88.0206   10.7622 C.ar    1  UNL1        0.1385
      9 C          61.1452   86.9784   11.5354 C.ar    1  UNL1        0.0364
     10 C          61.9386   85.9328   10.8092 C.ar    1  UNL1        0.0301
     11 C          62.6909   84.8905   11.5825 C.3     1  UNL1        0.2310
     12 O          59.5996   89.0662   11.4884 O.3     1  UNL1       -0.4714
     13 C          59.7216   90.5083   11.0943 C.3     1  UNL1        0.2525
     14 C          64.2365   82.8027   11.6295 C.3     1  UNL1        0.0478
     15 C          63.5294   81.5710   12.1120 C.3     1  UNL1        0.0038
     16 C          63.3241   81.3511   13.5815 C.3     1  UNL1        0.0001
     17 C          60.8341   80.8152   14.0941 C.3     1  UNL1        0.0000
     18 C          62.0197   81.7252   14.2208 C.3     1  UNL1        0.0000
     19 O          62.6497   84.8939   13.0819 O.3     1  UNL1       -0.4439
     20 C          63.7464   85.5576   13.8609 C.2     1  UNL1        0.3179
     21 C          64.7379   84.7252   14.6185 C.3     1  UNL1        0.1212
     22 O          63.8516   87.0537   13.8821 O.2     1  UNL1       -0.2501
@<TRIPOS>BOND
     1    17    18    1
     2    18    16    1
     3    16    15    1
     4    15    14    1
     5     1    14    1
     6     1     2    1
     7     2     3    1
     8     3     4    2
     9     3     5    1
    10     5     6   ar
    11     6     7   ar
    12     7     8   ar
    13     8    12    1
    14    12    13    1
    15     8     9   ar
    16     9    10   ar
    17    10    11    1
    18    11    19    1
    19    19    20    1
    20    20    21    1
    21    20    22    2
    22    11     1    1
    23    10     5   ar
@<TRIPOS>MOLECULE
*****
 22 23 0 0 0
SMALL
GASTEIGER

@<TRIPOS>ATOM
      1 C          62.6869   85.3339    9.5690 C.3     1  UNL1        0.2131
      2 O          63.4359   84.0741    9.2496 O.3     1  UNL1       -0.4451
      3 C          63.9150   83.1848   10.3584 C.2     1  UNL1        0.3410
      4 O          64.6639   81.9250   10.0389 O.2     1  UNL1       -0.2449
      5 C          63.6451   83.5552   11.7867 C.ar    1  UNL1        0.0753
      6 C          64.1242   82.6658   12.8955 C.ar    1  UNL1        0.0093
      7 C          63.8544   83.0362   14.3237 C.ar    1  UNL1        0.0371
      8 C          63.1054   84.2960   14.6432 C.ar    1  UNL1        0.1385
      9 C          62.6263   85.1854   13.5344 C.ar    1  UNL1        0.0364
     10 C          62.8962   84.8149   12.1062 C.ar    1  UNL1        0.0301
     11 C          62.4171   85.7043   10.9973 C.3     1  UNL1        0.2310
     12 O          62.8356   84.6664   16.0715 O.3     1  UNL1       -0.4714
     13 C          63.3386   85.9704   16.6160 C.3     1  UNL1        0.2525
     14 C          62.2078   86.2233    8.4601 C.3     1  UNL1        0.0478
     15 C          60.8843   85.9590    7.8055 C.3     1  UNL1        0.0038
     16 C          59.6551   86.6732    8.2839 C.3     1  UNL1        0.0001
     17 C          59.3441   88.9464    7.0651 C.3     1  UNL1        0.0000
     18 C          59.6246   88.1724    8.3190 C.3     1  UNL1        0.0000
     19 O          61.6681   86.9641   11.3167 O.3     1  UNL1       -0.4439
     20 C          62.4086   88.2605   11.4619 C.2     1  UNL1        0.3179
     21 C          62.2848   89.3174   10.4048 C.3     1  UNL1        0.1212
     22 O          63.2728   88.5000   12.6643 O.2     1  UNL1       -0.2501
@<TRIPOS>BOND
     1    17    18    1
     2    18    16    1
     3    16    15    1
     4    15    14    1
     5     1    14    1
     6     1     2    1
     7     2     3    1
     8     3     4    2
     9     3     5    1
    10     5     6   ar
    11     6     7   ar
    12     7     8   ar
    13     8    12    1
    14    12    13    1
    15     8     9   ar
    16     9    10   ar
    17    10    11    1
    18    11    19    1
    19    19    20    1
    20    20    21    1
    21    20    22    2
    22    11     1    1
    23    10     5   ar
@<TRIPOS>MOLECULE
*****
 22 23 0 0 0
SMALL
GASTEIGER

@<TRIPOS>ATOM
      1 C          63.5913   86.1086   13.1649 C.3     1  UNL1        0.2131
      2 O          63.8921   87.5172   13.5836 O.3     1  UNL1       -0.4451
      3 C          63.3543   88.6679   12.7857 C.2     1  UNL1        0.3410
      4 O          63.6552   90.0765   13.2043 O.2     1  UNL1       -0.2449
      5 C          62.5155   88.4100   11.5691 C.ar    1  UNL1        0.0753
      6 C          61.9777   89.5606   10.7712 C.ar    1  UNL1        0.0093
      7 C          61.1390   89.3027    9.5547 C.ar    1  UNL1        0.0371
      8 C          60.8381   87.8940    9.1361 C.ar    1  UNL1        0.1385
      9 C          61.3759   86.7434    9.9339 C.ar    1  UNL1        0.0364
     10 C          62.2147   87.0013   11.1504 C.ar    1  UNL1        0.0301
     11 C          62.7525   85.8506   11.9484 C.3     1  UNL1        0.2310
     12 O          59.9993   87.6361    7.9195 O.3     1  UNL1       -0.4714
     13 C          59.3292   88.7781    7.2146 C.3     1  UNL1        0.2525
     14 C          64.1292   84.9579   13.9629 C.3     1  UNL1        0.0478
     15 C          63.3651   84.4443   15.1471 C.3     1  UNL1        0.0038
     16 C          62.2334   83.4801   14.9488 C.3     1  UNL1        0.0001
     17 C          61.3570   81.1794   14.1188 C.3     1  UNL1        0.0000
     18 C          62.4911   82.1383   14.3298 C.3     1  UNL1        0.0000
     19 O          62.4517   84.4420   11.5298 O.3     1  UNL1       -0.4439
     20 C          63.3973   83.7107   10.6237 C.2     1  UNL1        0.3179
     21 C          64.1878   82.5476   11.1458 C.3     1  UNL1        0.1212
     22 O          63.5525   84.1423    9.1956 O.2     1  UNL1       -0.2501
@<TRIPOS>BOND
     1    17    18    1
     2    18    16    1
     3    16    15    1
     4    15    14    1
     5     1    14    1
     6     1     2    1
     7     2     3    1
     8     3     4    2
     9     3     5    1
    10     5     6   ar
    11     6     7   ar
    12     7     8   ar
    13     8    12    1
    14    12    13    1
    15     8     9   ar
    16     9    10   ar
    17    10    11    1
    18    11    19    1
    19    19    20    1
    20    20    21    1
    21    20    22    2
    22    11     1    1
    23    10     5   ar
@<TRIPOS>MOLECULE
*****
 22 23 0 0 0
SMALL
GASTEIGER

@<TRIPOS>ATOM
      1 C          62.6976   87.5041   11.4503 C.3     1  UNL1        0.2131
      2 O          63.2955   88.3264   12.5531 O.3     1  UNL1       -0.4451
      3 C          63.8393   87.6548   13.7792 C.2     1  UNL1        0.3410
      4 O          64.4372   88.4771   14.8820 O.2     1  UNL1       -0.2449
      5 C          63.7852   86.1608   13.9023 C.ar    1  UNL1        0.0753
      6 C          64.3290   85.4892   15.1284 C.ar    1  UNL1        0.0093
      7 C          64.2750   83.9953   15.2515 C.ar    1  UNL1        0.0371
      8 C          63.6771   83.1729   14.1486 C.ar    1  UNL1        0.1385
      9 C          63.1333   83.8446   12.9226 C.ar    1  UNL1        0.0364
     10 C          63.1874   85.3385   12.7995 C.ar    1  UNL1        0.0301
     11 C          62.6435   86.0102   11.5734 C.3     1  UNL1        0.2310
     12 O          63.6230   81.6789   14.2718 O.3     1  UNL1       -0.4714
     13 C          62.3820   80.9378   13.8713 C.3     1  UNL1        0.2525
     14 C          62.1538   88.1758   10.2242 C.3     1  UNL1        0.0478
     15 C          60.6712   88.2801   10.0214 C.3     1  UNL1        0.0038
     16 C          60.1271   88.9924    8.8187 C.3     1  UNL1        0.0001
     17 C          59.2615   86.7358    7.8655 C.3     1  UNL1        0.0000
     18 C          59.4858   88.2108    7.7106 C.3     1  UNL1        0.0000
     19 O          62.0457   85.1879   10.4705 O.3     1  UNL1       -0.4439
     20 C          62.9160   84.6731    9.3625 C.2     1  UNL1        0.3179
     21 C          62.8455   85.2988    8.0011 C.3     1  UNL1        0.1212
     22 O          63.8567   83.5326    9.6159 O.2     1  UNL1       -0.2501
@<TRIPOS>BOND
     1    17    18    1
     2    18    16    1
     3    16    15    1
     4    15    14    1
     5     1    14    1
     6     1     2    1
     7     2     3    1
     8     3     4    2
     9     3     5    1
    10     5     6   ar
    11     6     7   ar
    12     7     8   ar
    13     8    12    1
    14    12    13    1
    15     8     9   ar
    16     9    10   ar
    17    10    11    1
    18    11    19    1
    19    19    20    1
    20    20    21    1
    21    20    22    2
    22    11     1    1
    23    10     5   ar
@<TRIPOS>MOLECULE
*****
 22 23 0 0 0
SMALL
GASTEIGER

@<TRIPOS>ATOM
      1 C          62.1227   86.8169   11.0791 C.3     1  UNL1        0.2131
      2 O          62.5610   85.9481   12.2206 O.3     1  UNL1       -0.4451
      3 C          63.3324   86.5418   13.3618 C.2     1  UNL1        0.3410
      4 O          63.7706   85.6731   14.5034 O.2     1  UNL1       -0.2449
      5 C          63.6656   88.0044   13.3615 C.ar    1  UNL1        0.0753
      6 C          64.4370   88.5981   14.5027 C.ar    1  UNL1        0.0093
      7 C          64.7702   90.0606   14.5023 C.ar    1  UNL1        0.0371
      8 C          64.3319   90.9294   13.3607 C.ar    1  UNL1        0.1385
      9 C          63.5605   90.3357   12.2196 C.ar    1  UNL1        0.0364
     10 C          63.2274   88.8732   12.2199 C.ar    1  UNL1        0.0301
     11 C          62.4559   88.2794   11.0787 C.3     1  UNL1        0.2310
     12 O          64.6651   92.3920   13.3604 O.3     1  UNL1       -0.4714
     13 C          65.8954   92.8807   12.6551 C.3     1  UNL1        0.2525
     14 C          61.3513   86.2231    9.9378 C.3     1  UNL1        0.0478
     15 C          62.0417   85.9265    8.6396 C.3     1  UNL1        0.0038
     16 C          61.2346   85.6934    7.3970 C.3     1  UNL1        0.0001
     17 C          62.1226   84.3413    5.3640 C.3     1  UNL1        0.0000
     18 C          61.3592   84.3963    6.6540 C.3     1  UNL1        0.0000
     19 O          62.0177   89.1481    9.9371 O.3     1  UNL1       -0.4439
     20 C          60.5817   89.5659    9.8209 C.2     1  UNL1        0.3179
     21 C          59.9353   90.3452   10.9277 C.3     1  UNL1        0.1212
     22 O          59.7921   89.2044    8.5978 O.2     1  UNL1       -0.2501
@<TRIPOS>BOND
     1    17    18    1
     2    18    16    1
     3    16    15    1
     4    15    14    1
     5     1    14    1
     6     1     2    1
     7     2     3    1
     8     3     4    2
     9     3     5    1
    10     5     6   ar
    11     6     7   ar
    12     7     8   ar
    13     8    12    1
    14    12    13    1
    15     8     9   ar
    16     9    10   ar
    17    10    11    1
    18    11    19    1
    19    19    20    1
    20    20    21    1
    21    20    22    2
    22    11     1    1
    23    10     5   ar
@<TRIPOS>MOLECULE
*****
 22 23 0 0 0
SMALL
GASTEIGER

@<TRIPOS>ATOM
      1 C          60.7080   87.2480    8.9170 C.3     1  UNL1        0.2131
      2 O          61.2895   86.4620    7.7793 O.3     1  UNL1       -0.4451
      3 C          62.2429   85.3373    8.0548 C.2     1  UNL1        0.3410
      4 O          62.8243   84.5513    6.9172 O.2     1  UNL1       -0.2449
      5 C          62.6150   84.9985    9.4679 C.ar    1  UNL1        0.0753
      6 C          63.5685   83.8738    9.7434 C.ar    1  UNL1        0.0093
      7 C          63.9405   83.5351   11.1564 C.ar    1  UNL1        0.0371
      8 C          63.3591   84.3211   12.2941 C.ar    1  UNL1        0.1385
      9 C          62.4056   85.4458   12.0186 C.ar    1  UNL1        0.0364
     10 C          62.0336   85.7845   10.6055 C.ar    1  UNL1        0.0301
     11 C          61.0801   86.9093   10.3300 C.3     1  UNL1        0.2310
     12 O          63.7312   83.9823   13.7072 O.3     1  UNL1       -0.4714
     13 C          62.6588   83.7354   14.7265 C.3     1  UNL1        0.2525
     14 C          59.7545   88.3727    8.6414 C.3     1  UNL1        0.0478
     15 C          59.1743   88.5449    7.2690 C.3     1  UNL1        0.0038
     16 C          59.5559   89.7331    6.4370 C.3     1  UNL1        0.0001
     17 C          58.8812   91.6938    4.8715 C.3     1  UNL1        0.0000
     18 C          58.4984   90.5124    5.7128 C.3     1  UNL1        0.0000
     19 O          60.4987   87.6953   11.4676 O.3     1  UNL1       -0.4439
     20 C          60.9499   89.1045   11.7135 C.2     1  UNL1        0.3179
     21 C          62.4123   89.4380   11.6940 C.3     1  UNL1        0.1212
     22 O          59.9389   90.1803   11.9789 O.2     1  UNL1       -0.2501
@<TRIPOS>BOND
     1    17    18    1
     2    18    16    1
     3    16    15    1
     4    15    14    1
     5     1    14    1
     6     1     2    1
     7     2     3    1
     8     3     4    2
     9     3     5    1
    10     5     6   ar
    11     6     7   ar
    12     7     8   ar
    13     8    12    1
    14    12    13    1
    15     8     9   ar
    16     9    10   ar
    17    10    11    1
    18    11    19    1
    19    19    20    1
    20    20    21    1
    21    20    22    2
    22    11     1    1
    23    10     5   ar
@<TRIPOS>MOLECULE
*****
 22 23 0 0 0
SMALL
GASTEIGER

@<TRIPOS>ATOM
      1 C          62.2472   87.7098   11.4935 C.3     1  UNL1        0.2131
      2 O          63.1275   88.1378   12.6301 O.3     1  UNL1       -0.4451
      3 C          63.7969   87.1069   13.4897 C.2     1  UNL1        0.3410
      4 O          64.6772   87.5349   14.6263 O.2     1  UNL1       -0.2449
      5 C          63.5860   85.6477   13.2128 C.ar    1  UNL1        0.0753
      6 C          64.2553   84.6168   14.0724 C.ar    1  UNL1        0.0093
      7 C          64.0444   83.1578   13.7954 C.ar    1  UNL1        0.0371
      8 C          63.1641   82.7297   12.6589 C.ar    1  UNL1        0.1385
      9 C          62.4947   83.7607   11.7992 C.ar    1  UNL1        0.0364
     10 C          62.7056   85.2197   12.0762 C.ar    1  UNL1        0.0301
     11 C          62.0362   86.2508   11.2166 C.3     1  UNL1        0.2310
     12 O          62.9532   81.2706   12.3819 O.3     1  UNL1       -0.4714
     13 C          62.3200   80.3938   13.4213 C.3     1  UNL1        0.2525
     14 C          61.5778   88.7408   10.6339 C.3     1  UNL1        0.0478
     15 C          61.9020   90.1940   10.8157 C.3     1  UNL1        0.0038
     16 C          63.1145   90.7803   10.1554 C.3     1  UNL1        0.0001
     17 C          64.3914   91.4581   12.3141 C.3     1  UNL1        0.0000
     18 C          63.9790   91.7523   10.9023 C.3     1  UNL1        0.0000
     19 O          61.1559   85.8227   10.0800 O.3     1  UNL1       -0.4439
     20 C          61.6879   85.8245    8.6774 C.2     1  UNL1        0.3179
     21 C          63.1167   85.4494    8.4168 C.3     1  UNL1        0.1212
     22 O          60.7912   86.2013    7.5356 O.2     1  UNL1       -0.2501
@<TRIPOS>BOND
     1    17    18    1
     2    18    16    1
     3    16    15    1
     4    15    14    1
     5     1    14    1
     6     1     2    1
     7     2     3    1
     8     3     4    2
     9     3     5    1
    10     5     6   ar
    11     6     7   ar
    12     7     8   ar
    13     8    12    1
    14    12    13    1
    15     8     9   ar
    16     9    10   ar
    17    10    11    1
    18    11    19    1
    19    19    20    1
    20    20    21    1
    21    20    22    2
    22    11     1    1
    23    10     5   ar
@<TRIPOS>MOLECULE
*****
 22 23 0 0 0
SMALL
GASTEIGER

@<TRIPOS>ATOM
      1 C          64.5594   91.5382   14.2594 C.3     1  UNL1        0.2131
      2 O          65.1994   92.2493   13.1041 O.3     1  UNL1       -0.4451
      3 C          64.6937   92.0221   11.7103 C.2     1  UNL1        0.3410
      4 O          65.3337   92.7332   10.5550 O.2     1  UNL1       -0.2449
      5 C          63.5479   91.0838   11.4718 C.ar    1  UNL1        0.0753
      6 C          63.0422   90.8566   10.0781 C.ar    1  UNL1        0.0093
      7 C          61.8965   89.9183    9.8397 C.ar    1  UNL1        0.0371
      8 C          61.2565   89.2072   10.9950 C.ar    1  UNL1        0.1385
      9 C          61.7622   89.4344   12.3887 C.ar    1  UNL1        0.0364
     10 C          62.9079   90.3727   12.6272 C.ar    1  UNL1        0.0301
     11 C          63.4137   90.5999   14.0210 C.3     1  UNL1        0.2310
     12 O          60.1108   88.2688   10.7565 O.3     1  UNL1       -0.4714
     13 C          59.9476   87.6090    9.4194 C.3     1  UNL1        0.2525
     14 C          65.0652   91.7655   15.6532 C.3     1  UNL1        0.0478
     15 C          66.3209   92.5551   15.8759 C.3     1  UNL1        0.0038
     16 C          67.6523   91.9629   15.5201 C.3     1  UNL1        0.0001
     17 C          69.1094   94.0632   15.9844 C.3     1  UNL1        0.0000
     18 C          68.9129   92.5777   16.0520 C.3     1  UNL1        0.0000
     19 O          62.7737   89.8888   15.1763 O.3     1  UNL1       -0.4439
     20 C          63.3612   88.6062   15.6860 C.2     1  UNL1        0.3179
     21 C          63.0900   88.1642   17.0935 C.3     1  UNL1        0.1212
     22 O          64.2199   87.7656   14.7882 O.2     1  UNL1       -0.2501
@<TRIPOS>BOND
     1    17    18    1
     2    18    16    1
     3    16    15    1
     4    15    14    1
     5     1    14    1
     6     1     2    1
     7     2     3    1
     8     3     4    2
     9     3     5    1
    10     5     6   ar
    11     6     7   ar
    12     7     8   ar
    13     8    12    1
    14    12    13    1
    15     8     9   ar
    16     9    10   ar
    17    10    11    1
    18    11    19    1
    19    19    20    1
    20    20    21    1
    21    20    22    2
    22    11     1    1
    23    10     5   ar
