@<TRIPOS>MOLECULE
*****
 33 37 0 0 0
SMALL
GASTEIGER

@<TRIPOS>ATOM
      1 C          60.9726   88.2135   11.2340 C.ar    1  UNL1        0.1646
      2 N          62.3791   88.4379   11.7045 N.ar    1  UNL1       -0.2224
      3 C          62.4896   89.8582   12.1744 C.ar    1  UNL1        0.1074
      4 C          61.1515   90.5115   11.9942 C.ar    1  UNL1        0.0588
      5 S          60.2139   89.4950   11.4130 S.2     1  UNL1       -0.0508
      6 C          63.7219   90.5106   12.7273 C.ar    1  UNL1        0.1026
      7 C          64.3099   90.0284   14.0202 C.ar    1  UNL1        0.0224
      8 C          65.5423   90.6808   14.5732 C.ar    1  UNL1        0.0239
      9 C          66.1867   91.8153   13.8332 C.ar    1  UNL1        0.1189
     10 C          65.5987   92.2975   12.5402 C.ar    1  UNL1        0.2416
     11 N          64.3664   91.6451   11.9873 N.ar    1  UNL1       -0.2089
     12 N          67.4190   92.4677   14.3861 N.ar    1  UNL1       -0.2826
     13 C          68.8348   92.1147   14.0388 C.ar    1  UNL1        0.1826
     14 N          69.7427   93.0165   14.8215 N.ar    1  UNL1       -0.2280
     15 C          68.8880   93.9269   15.6524 C.ar    1  UNL1        0.0786
     16 C          69.3825   94.9898   16.5881 C.3     1  UNL1        0.0538
     17 C          67.4518   93.5878   15.3834 C.ar    1  UNL1        0.0963
     18 O          66.2430   93.4320   11.8001 O.3     1  UNL1       -0.4551
     19 C          66.7698   93.2190   10.4119 C.3     1  UNL1        0.2543
     20 N          60.4216   86.9324   10.6815 N.pl3   1  UNL1       -0.2786
     21 H          59.4562   86.7477   10.7364 H       1  UNL1        0.1555
     22 N          61.4706   85.6642    8.5752 N.ar    1  UNL1       -0.2383
     23 N          62.5027   84.5919    8.3888 N.ar    1  UNL1       -0.1729
     24 C          63.0116   84.1978    9.7438 C.ar    1  UNL1        0.0773
     25 C          62.2940   85.0266   10.7674 C.ar    1  UNL1        0.0244
     26 C          61.3416   85.9329   10.0453 C.ar    1  UNL1        0.1275
     27 C          62.4472   85.0089   12.2595 C.3     1  UNL1        0.0304
     28 C          63.3559   84.1579   13.0963 C.3     1  UNL1        0.0048
     29 C          64.3357   83.1147   12.6477 C.3     1  UNL1        0.0007
     30 C          64.6490   82.6645   11.2516 C.3     1  UNL1        0.0064
     31 C          64.0597   83.1466    9.9591 C.3     1  UNL1        0.0473
     32 C          59.2207   86.5409    7.6162 C.3     1  UNL1        0.0285
     33 C          60.7023   86.3479    7.4832 C.3     1  UNL1        0.1289
@<TRIPOS>BOND
     1    32    33    1
     2    33    22    1
     3    22    23   ar
     4    23    24   ar
     5    24    25   ar
     6    25    26   ar
     7    26    20    1
     8    20     1    1
     9     1     2   ar
    10     2     3   ar
    11     3     6    1
    12     6     7   ar
    13     7     8   ar
    14     8     9   ar
    15     9    12    1
    16    12    13   ar
    17    13    14   ar
    18    14    15   ar
    19    15    16    1
    20    15    17   ar
    21     9    10   ar
    22    10    18    1
    23    18    19    1
    24    10    11   ar
    25     3     4   ar
    26     4     5   ar
    27    25    27    1
    28    27    28    1
    29    28    29    1
    30    29    30    1
    31    30    31    1
    32    26    22   ar
    33     5     1   ar
    34    31    24    1
    35    11     6   ar
    36    17    12   ar
    37    20    21    1
@<TRIPOS>MOLECULE
*****
 33 37 0 0 0
SMALL
GASTEIGER

@<TRIPOS>ATOM
      1 C          63.8479   91.3090   11.4247 C.ar    1  UNL1        0.1646
      2 N          64.0514   89.9953   12.1195 N.ar    1  UNL1       -0.2224
      3 C          63.0692   89.0137   11.5520 C.ar    1  UNL1        0.1074
      4 C          62.2588   89.7208   10.5064 C.ar    1  UNL1        0.0588
      5 S          62.7401   91.1394   10.4278 S.2     1  UNL1       -0.0508
      6 C          62.9232   87.5773   11.9586 C.ar    1  UNL1        0.1026
      7 C          62.0812   86.6471   11.1367 C.ar    1  UNL1        0.0224
      8 C          61.9352   85.2106   11.5433 C.ar    1  UNL1        0.0239
      9 C          62.6311   84.7044   12.7719 C.ar    1  UNL1        0.1189
     10 C          63.4731   85.6347   13.5939 C.ar    1  UNL1        0.2416
     11 N          63.6192   87.0711   13.1872 N.ar    1  UNL1       -0.2089
     12 N          62.4851   83.2680   13.1786 N.ar    1  UNL1       -0.2826
     13 C          62.0850   82.7725   14.5366 C.ar    1  UNL1        0.1826
     14 N          62.0662   81.2731   14.4959 N.ar    1  UNL1       -0.2280
     15 C          62.4547   80.8420   13.1127 C.ar    1  UNL1        0.0786
     16 C          62.5649   79.4266   12.6287 C.3     1  UNL1        0.0538
     17 C          62.7136   82.0749   12.2985 C.ar    1  UNL1        0.0963
     18 O          64.1691   85.1286   14.8225 O.3     1  UNL1       -0.4551
     19 C          63.7923   85.6638   16.1721 C.3     1  UNL1        0.2543
     20 N          64.6172   92.5707   11.6817 N.pl3   1  UNL1       -0.2786
     21 H          64.1808   93.4456   11.5658 H       1  UNL1        0.1555
     22 N          67.2446   92.4362   11.2086 N.ar    1  UNL1       -0.2383
     23 N          68.4748   92.3768   12.0647 N.ar    1  UNL1       -0.1729
     24 C          68.0419   92.4035   13.5007 C.ar    1  UNL1        0.0773
     25 C          66.5443   92.4794   13.5319 C.ar    1  UNL1        0.0244
     26 C          66.0514   92.4996   12.1154 C.ar    1  UNL1        0.1275
     27 C          65.6350   92.5294   14.7240 C.3     1  UNL1        0.0304
     28 C          65.9991   92.5159   16.1791 C.3     1  UNL1        0.0048
     29 C          67.3621   92.4490   16.8015 C.3     1  UNL1        0.0007
     30 C          68.6979   92.3791   16.1227 C.3     1  UNL1        0.0064
     31 C          69.0005   92.3588   14.6536 C.3     1  UNL1        0.0473
     32 C          68.4912   92.3188    8.9321 C.3     1  UNL1        0.0285
     33 C          67.2130   92.4327    9.7089 C.3     1  UNL1        0.1289
@<TRIPOS>BOND
     1    32    33    1
     2    33    22    1
     3    22    23   ar
     4    23    24   ar
     5    24    25   ar
     6    25    26   ar
     7    26    20    1
     8    20     1    1
     9     1     2   ar
    10     2     3   ar
    11     3     6    1
    12     6     7   ar
    13     7     8   ar
    14     8     9   ar
    15     9    12    1
    16    12    13   ar
    17    13    14   ar
    18    14    15   ar
    19    15    16    1
    20    15    17   ar
    21     9    10   ar
    22    10    18    1
    23    18    19    1
    24    10    11   ar
    25     3     4   ar
    26     4     5   ar
    27    25    27    1
    28    27    28    1
    29    28    29    1
    30    29    30    1
    31    30    31    1
    32    26    22   ar
    33     5     1   ar
    34    31    24    1
    35    11     6   ar
    36    17    12   ar
    37    20    21    1
@<TRIPOS>MOLECULE
*****
 33 37 0 0 0
SMALL
GASTEIGER

@<TRIPOS>ATOM
      1 C          63.4165   86.8565   14.6644 C.ar    1  UNL1        0.1646
      2 N          63.8738   87.7853   13.5789 N.ar    1  UNL1       -0.2224
      3 C          64.1648   89.1186   14.2018 C.ar    1  UNL1        0.1074
      4 C          63.8873   89.0137   15.6721 C.ar    1  UNL1        0.0588
      5 S          63.4249   87.6157   15.9581 S.2     1  UNL1       -0.0508
      6 C          64.6483   90.3418   13.4808 C.ar    1  UNL1        0.1026
      7 C          63.9309   90.8221   12.2542 C.ar    1  UNL1        0.0224
      8 C          64.4144   92.0454   11.5331 C.ar    1  UNL1        0.0239
      9 C          65.6153   92.7884   12.0388 C.ar    1  UNL1        0.1189
     10 C          66.3327   92.3082   13.2655 C.ar    1  UNL1        0.2416
     11 N          65.8492   91.0850   13.9865 N.ar    1  UNL1       -0.2089
     12 N          66.0988   94.0117   11.3179 N.ar    1  UNL1       -0.2826
     13 C          66.1262   95.4066   11.8687 C.ar    1  UNL1        0.1826
     14 N          66.6841   96.3118   10.8107 N.ar    1  UNL1       -0.2280
     15 C          67.0016   95.4764    9.6060 C.ar    1  UNL1        0.0786
     16 C          67.5793   95.9749    8.3147 C.3     1  UNL1        0.0538
     17 C          66.6398   94.0548    9.9195 C.ar    1  UNL1        0.0963
     18 O          67.5336   93.0513   13.7712 O.3     1  UNL1       -0.4551
     19 C          67.6033   93.4745   15.2086 C.3     1  UNL1        0.2543
     20 N          63.0205   85.4207   14.4873 N.pl3   1  UNL1       -0.2786
     21 H          62.6434   84.9171   15.2445 H       1  UNL1        0.1555
     22 N          63.7176   83.3629   12.9302 N.ar    1  UNL1       -0.2383
     23 N          63.7294   83.1075   11.4522 N.ar    1  UNL1       -0.1729
     24 C          63.2181   84.3389   10.7649 C.ar    1  UNL1        0.0773
     25 C          62.8903   85.3552   11.8182 C.ar    1  UNL1        0.0244
     26 C          63.1990   84.7521   13.1564 C.ar    1  UNL1        0.1275
     27 C          62.3489   86.7430   11.6424 C.3     1  UNL1        0.0304
     28 C          62.0015   87.4572   10.3698 C.3     1  UNL1        0.0048
     29 C          62.1098   86.9599    8.9589 C.3     1  UNL1        0.0007
     30 C          62.5922   85.6256    8.4718 C.3     1  UNL1        0.0064
     31 C          63.0854   84.4592    9.2756 C.3     1  UNL1        0.0473
     32 C          63.7145   80.9642   13.9283 C.3     1  UNL1        0.0285
     33 C          64.1487   82.3984   13.9951 C.3     1  UNL1        0.1289
@<TRIPOS>BOND
     1    32    33    1
     2    33    22    1
     3    22    23   ar
     4    23    24   ar
     5    24    25   ar
     6    25    26   ar
     7    26    20    1
     8    20     1    1
     9     1     2   ar
    10     2     3   ar
    11     3     6    1
    12     6     7   ar
    13     7     8   ar
    14     8     9   ar
    15     9    12    1
    16    12    13   ar
    17    13    14   ar
    18    14    15   ar
    19    15    16    1
    20    15    17   ar
    21     9    10   ar
    22    10    18    1
    23    18    19    1
    24    10    11   ar
    25     3     4   ar
    26     4     5   ar
    27    25    27    1
    28    27    28    1
    29    28    29    1
    30    29    30    1
    31    30    31    1
    32    26    22   ar
    33     5     1   ar
    34    31    24    1
    35    11     6   ar
    36    17    12   ar
    37    20    21    1
@<TRIPOS>MOLECULE
*****
 33 37 0 0 0
SMALL
GASTEIGER

@<TRIPOS>ATOM
      1 C          60.9489   87.9707    9.8222 C.ar    1  UNL1        0.1646
      2 N          62.1319   88.2167   10.7110 N.ar    1  UNL1       -0.2224
      3 C          62.0654   89.6372   11.1884 C.ar    1  UNL1        0.1074
      4 C          60.8415   90.2690   10.5947 C.ar    1  UNL1        0.0588
      5 S          60.1514   89.2391    9.7503 S.2     1  UNL1       -0.0508
      6 C          63.0501   90.3080   12.0996 C.ar    1  UNL1        0.1026
      7 C          63.9952   91.3377   11.5549 C.ar    1  UNL1        0.0224
      8 C          64.9800   92.0085   12.4662 C.ar    1  UNL1        0.0239
      9 C          65.0197   91.6497   13.9221 C.ar    1  UNL1        0.1189
     10 C          64.0746   90.6200   14.4668 C.ar    1  UNL1        0.2416
     11 N          63.0899   89.9492   13.5556 N.ar    1  UNL1       -0.2089
     12 N          66.0044   92.3205   14.8333 N.ar    1  UNL1       -0.2826
     13 C          65.8102   92.5901   16.2960 C.ar    1  UNL1        0.1826
     14 N          67.0420   93.2757   16.8084 N.ar    1  UNL1       -0.2280
     15 C          67.9975   93.4298   15.6624 C.ar    1  UNL1        0.0786
     16 C          69.3557   94.0631   15.7260 C.3     1  UNL1        0.0538
     17 C          67.3562   92.8395   14.4417 C.ar    1  UNL1        0.0963
     18 O          64.1143   90.2612   15.9227 O.3     1  UNL1       -0.4551
     19 C          63.1032   89.3083   16.4881 C.3     1  UNL1        0.2543
     20 N          60.6210   86.6825    9.1272 N.pl3   1  UNL1       -0.2786
     21 H          59.7297   86.5502    8.7305 H       1  UNL1        0.1555
     22 N          62.1104   84.9189    7.7795 N.ar    1  UNL1       -0.2383
     23 N          63.1458   83.9000    8.1533 N.ar    1  UNL1       -0.1729
     24 C          63.3263   83.9472    9.6417 C.ar    1  UNL1        0.0773
     25 C          62.4025   84.9952   10.1876 C.ar    1  UNL1        0.0244
     26 C          61.6510   85.5958    9.0368 C.ar    1  UNL1        0.1275
     27 C          62.2096   85.4212   11.6129 C.3     1  UNL1        0.0304
     28 C          62.8929   84.9042   12.8442 C.3     1  UNL1        0.0048
     29 C          63.9378   83.8338   12.9542 C.3     1  UNL1        0.0007
     30 C          64.5576   83.0157   11.8603 C.3     1  UNL1        0.0064
     31 C          64.2854   83.0662   10.3860 C.3     1  UNL1        0.0473
     32 C          61.9198   84.2544    5.2750 C.3     1  UNL1        0.0285
     33 C          61.6204   85.2099    6.3919 C.3     1  UNL1        0.1289
@<TRIPOS>BOND
     1    32    33    1
     2    33    22    1
     3    22    23   ar
     4    23    24   ar
     5    24    25   ar
     6    25    26   ar
     7    26    20    1
     8    20     1    1
     9     1     2   ar
    10     2     3   ar
    11     3     6    1
    12     6     7   ar
    13     7     8   ar
    14     8     9   ar
    15     9    12    1
    16    12    13   ar
    17    13    14   ar
    18    14    15   ar
    19    15    16    1
    20    15    17   ar
    21     9    10   ar
    22    10    18    1
    23    18    19    1
    24    10    11   ar
    25     3     4   ar
    26     4     5   ar
    27    25    27    1
    28    27    28    1
    29    28    29    1
    30    29    30    1
    31    30    31    1
    32    26    22   ar
    33     5     1   ar
    34    31    24    1
    35    11     6   ar
    36    17    12   ar
    37    20    21    1
@<TRIPOS>MOLECULE
*****
 33 37 0 0 0
SMALL
GASTEIGER

@<TRIPOS>ATOM
      1 C          65.3155   92.3277   13.8816 C.ar    1  UNL1        0.1646
      2 N          65.0549   91.0431   13.1524 N.ar    1  UNL1       -0.2224
      3 C          64.5618   90.0362   14.1490 C.ar    1  UNL1        0.1074
      4 C          64.5177   90.6986   15.4941 C.ar    1  UNL1        0.0588
      5 S          64.9836   92.1149   15.3288 S.2     1  UNL1       -0.0508
      6 C          64.1799   88.6163   13.8526 C.ar    1  UNL1        0.1026
      7 C          64.6178   87.5144   14.7713 C.ar    1  UNL1        0.0224
      8 C          64.2359   86.0944   14.4749 C.ar    1  UNL1        0.0239
      9 C          63.4160   85.7764   13.2597 C.ar    1  UNL1        0.1189
     10 C          62.9781   86.8782   12.3409 C.ar    1  UNL1        0.2416
     11 N          63.3600   88.2981   12.6374 N.ar    1  UNL1       -0.2089
     12 N          63.0341   84.3564   12.9632 N.ar    1  UNL1       -0.2826
     13 C          63.2040   83.6538   11.6490 C.ar    1  UNL1        0.1826
     14 N          62.6901   82.2529   11.8025 N.ar    1  UNL1       -0.2280
     15 C          62.2026   82.0898   13.2117 C.ar    1  UNL1        0.0786
     16 C          61.6072   80.8452   13.8001 C.3     1  UNL1        0.0538
     17 C          62.4152   83.3898   13.9291 C.ar    1  UNL1        0.0963
     18 O          62.1583   86.5601   11.1257 O.3     1  UNL1       -0.4551
     19 C          61.1739   87.5632   10.6015 C.3     1  UNL1        0.2543
     20 N          65.8196   93.6016   13.2708 N.pl3   1  UNL1       -0.2786
     21 H          65.6481   94.4626   13.7162 H       1  UNL1        0.1555
     22 N          67.6815   92.6004   11.6349 N.ar    1  UNL1       -0.2383
     23 N          68.1625   92.9235   10.2514 N.ar    1  UNL1       -0.1729
     24 C          67.3632   94.0864    9.7426 C.ar    1  UNL1        0.0773
     25 C          66.3884   94.4819   10.8117 C.ar    1  UNL1        0.0244
     26 C          66.5850   93.5635   11.9812 C.ar    1  UNL1        0.1275
     27 C          65.3710   95.5841   10.7885 C.3     1  UNL1        0.0304
     28 C          65.0775   96.5628    9.6903 C.3     1  UNL1        0.0048
     29 C          65.7287   96.6812    8.3443 C.3     1  UNL1        0.0007
     30 C          66.8343   95.8500    7.7639 C.3     1  UNL1        0.0064
     31 C          67.5617   94.6952    8.3862 C.3     1  UNL1        0.0473
     32 C          68.7902   91.8390   13.8579 C.3     1  UNL1        0.0285
     33 C          68.2052   91.5062   12.5173 C.3     1  UNL1        0.1289
@<TRIPOS>BOND
     1    32    33    1
     2    33    22    1
     3    22    23   ar
     4    23    24   ar
     5    24    25   ar
     6    25    26   ar
     7    26    20    1
     8    20     1    1
     9     1     2   ar
    10     2     3   ar
    11     3     6    1
    12     6     7   ar
    13     7     8   ar
    14     8     9   ar
    15     9    12    1
    16    12    13   ar
    17    13    14   ar
    18    14    15   ar
    19    15    16    1
    20    15    17   ar
    21     9    10   ar
    22    10    18    1
    23    18    19    1
    24    10    11   ar
    25     3     4   ar
    26     4     5   ar
    27    25    27    1
    28    27    28    1
    29    28    29    1
    30    29    30    1
    31    30    31    1
    32    26    22   ar
    33     5     1   ar
    34    31    24    1
    35    11     6   ar
    36    17    12   ar
    37    20    21    1
@<TRIPOS>MOLECULE
*****
 33 37 0 0 0
SMALL
GASTEIGER

@<TRIPOS>ATOM
      1 C          63.5523   89.2323   16.1123 C.ar    1  UNL1        0.1646
      2 N          63.6183   88.1953   15.0305 N.ar    1  UNL1       -0.2224
      3 C          63.1948   86.8827   15.6204 C.ar    1  UNL1        0.1074
      4 C          62.8672   87.1085   17.0666 C.ar    1  UNL1        0.0588
      5 S          63.0881   88.5607   17.3706 S.2     1  UNL1       -0.0508
      6 C          63.1134   85.5740   14.8919 C.ar    1  UNL1        0.1026
      7 C          62.8772   84.3044   15.6548 C.ar    1  UNL1        0.0224
      8 C          62.7957   82.9956   14.9263 C.ar    1  UNL1        0.0239
      9 C          62.9504   82.9566   13.4348 C.ar    1  UNL1        0.1189
     10 C          63.1866   84.2263   12.6718 C.ar    1  UNL1        0.2416
     11 N          63.2680   85.5350   13.4003 N.ar    1  UNL1       -0.2089
     12 N          62.8690   81.6480   12.7062 N.ar    1  UNL1       -0.2826
     13 C          62.6274   80.3054   13.3298 C.ar    1  UNL1        0.1826
     14 N          62.6239   79.2798   12.2351 N.ar    1  UNL1       -0.2280
     15 C          62.8633   79.9886   10.9351 C.ar    1  UNL1        0.0786
     16 C          62.9381   79.3466    9.5815 C.3     1  UNL1        0.0538
     17 C          63.0148   81.4523   11.2262 C.ar    1  UNL1        0.0963
     18 O          63.3413   84.1873   11.1803 O.3     1  UNL1       -0.4551
     19 C          62.6441   85.2052   10.3271 C.3     1  UNL1        0.2543
     20 N          63.8910   90.6858   15.9620 N.pl3   1  UNL1       -0.2786
     21 H          63.7711   91.3003   16.7218 H       1  UNL1        0.1555
     22 N          65.6700   91.9971   14.4583 N.ar    1  UNL1       -0.2383
     23 N          65.8027   92.3019   12.9957 N.ar    1  UNL1       -0.1729
     24 C          64.6272   91.6964   12.2875 C.ar    1  UNL1        0.0773
     25 C          63.7681   91.0173   13.3124 C.ar    1  UNL1        0.0244
     26 C          64.4125   91.2031   14.6541 C.ar    1  UNL1        0.1275
     27 C          62.4843   90.2686   13.1090 C.3     1  UNL1        0.0304
     28 C          61.7426   90.0141   11.8301 C.3     1  UNL1        0.0048
     29 C          62.1016   90.4454   10.4392 C.3     1  UNL1        0.0007
     30 C          63.2909   91.2378    9.9832 C.3     1  UNL1        0.0064
     31 C          64.4149   91.7946   10.8058 C.3     1  UNL1        0.0473
     32 C          68.0179   91.8525   15.5613 C.3     1  UNL1        0.0285
     33 C          66.6268   92.4131   15.5360 C.3     1  UNL1        0.1289
@<TRIPOS>BOND
     1    32    33    1
     2    33    22    1
     3    22    23   ar
     4    23    24   ar
     5    24    25   ar
     6    25    26   ar
     7    26    20    1
     8    20     1    1
     9     1     2   ar
    10     2     3   ar
    11     3     6    1
    12     6     7   ar
    13     7     8   ar
    14     8     9   ar
    15     9    12    1
    16    12    13   ar
    17    13    14   ar
    18    14    15   ar
    19    15    16    1
    20    15    17   ar
    21     9    10   ar
    22    10    18    1
    23    18    19    1
    24    10    11   ar
    25     3     4   ar
    26     4     5   ar
    27    25    27    1
    28    27    28    1
    29    28    29    1
    30    29    30    1
    31    30    31    1
    32    26    22   ar
    33     5     1   ar
    34    31    24    1
    35    11     6   ar
    36    17    12   ar
    37    20    21    1
@<TRIPOS>MOLECULE
*****
 33 37 0 0 0
SMALL
GASTEIGER

@<TRIPOS>ATOM
      1 C          62.6510   90.1420   12.1497 C.ar    1  UNL1        0.1646
      2 N          62.9966   88.7372   12.5462 N.ar    1  UNL1       -0.2224
      3 C          62.3586   87.8064   11.5579 C.ar    1  UNL1        0.1074
      4 C          61.6187   88.6358   10.5507 C.ar    1  UNL1        0.0588
      5 S          61.7994   90.0793   10.9164 S.2     1  UNL1       -0.0508
      6 C          62.4452   86.3090   11.5741 C.ar    1  UNL1        0.1026
      7 C          62.5030   85.5471   10.2833 C.ar    1  UNL1        0.0224
      8 C          62.5897   84.0496   10.2995 C.ar    1  UNL1        0.0239
      9 C          62.6186   83.3141   11.6065 C.ar    1  UNL1        0.1189
     10 C          62.5609   84.0760   12.8973 C.ar    1  UNL1        0.2416
     11 N          62.4742   85.5734   12.8811 N.ar    1  UNL1       -0.2089
     12 N          62.7053   81.8167   11.6227 N.ar    1  UNL1       -0.2826
     13 C          62.6492   80.9435   12.8410 C.ar    1  UNL1        0.1826
     14 N          62.7726   79.5167   12.3946 N.ar    1  UNL1       -0.2280
     15 C          62.9048   79.5082   10.9005 C.ar    1  UNL1        0.0786
     16 C          63.0527   78.2918   10.0354 C.3     1  UNL1        0.0538
     17 C          62.8633   80.9297   10.4234 C.ar    1  UNL1        0.0963
     18 O          62.5898   83.3405   14.2043 O.3     1  UNL1       -0.4551
     19 C          63.8056   83.4143   15.0797 C.3     1  UNL1        0.2543
     20 N          63.0814   91.3902   12.8614 N.pl3   1  UNL1       -0.2786
     21 H          62.4633   92.1529   12.9349 H       1  UNL1        0.1555
     22 N          64.7942   91.3020   14.9117 N.ar    1  UNL1       -0.2383
     23 N          66.2770   91.4697   15.0630 N.ar    1  UNL1       -0.1729
     24 C          66.8529   91.7477   13.7061 C.ar    1  UNL1        0.0773
     25 C          65.7259   91.7517   12.7163 C.ar    1  UNL1        0.0244
     26 C          64.4535   91.4763   13.4614 C.ar    1  UNL1        0.1275
     27 C          65.7829   91.9818   11.2351 C.3     1  UNL1        0.0304
     28 C          66.9810   92.2646   10.3780 C.3     1  UNL1        0.0048
     29 C          68.4179   92.3872   10.7904 C.3     1  UNL1        0.0007
     30 C          69.0118   92.2573   12.1617 C.3     1  UNL1        0.0064
     31 C          68.3152   91.9727   13.4593 C.3     1  UNL1        0.0473
     32 C          63.2437   89.6349   16.1636 C.3     1  UNL1        0.0285
     33 C          63.8225   91.0110   16.0168 C.3     1  UNL1        0.1289
@<TRIPOS>BOND
     1    32    33    1
     2    33    22    1
     3    22    23   ar
     4    23    24   ar
     5    24    25   ar
     6    25    26   ar
     7    26    20    1
     8    20     1    1
     9     1     2   ar
    10     2     3   ar
    11     3     6    1
    12     6     7   ar
    13     7     8   ar
    14     8     9   ar
    15     9    12    1
    16    12    13   ar
    17    13    14   ar
    18    14    15   ar
    19    15    16    1
    20    15    17   ar
    21     9    10   ar
    22    10    18    1
    23    18    19    1
    24    10    11   ar
    25     3     4   ar
    26     4     5   ar
    27    25    27    1
    28    27    28    1
    29    28    29    1
    30    29    30    1
    31    30    31    1
    32    26    22   ar
    33     5     1   ar
    34    31    24    1
    35    11     6   ar
    36    17    12   ar
    37    20    21    1
@<TRIPOS>MOLECULE
*****
 33 37 0 0 0
SMALL
GASTEIGER

@<TRIPOS>ATOM
      1 C          64.5641   90.7252   15.4051 C.ar    1  UNL1        0.1646
      2 N          64.7176   89.5028   14.5495 N.ar    1  UNL1       -0.2224
      3 C          63.8605   88.4184   15.1324 C.ar    1  UNL1        0.1074
      4 C          63.1774   88.9707   16.3482 C.ar    1  UNL1        0.0588
      5 S          63.6122   90.3964   16.5168 S.2     1  UNL1       -0.0508
      6 C          63.7126   87.0263   14.5940 C.ar    1  UNL1        0.1026
      7 C          64.0477   85.8479   15.4595 C.ar    1  UNL1        0.0224
      8 C          63.8998   84.4556   14.9210 C.ar    1  UNL1        0.0239
      9 C          63.4167   84.2418   13.5171 C.ar    1  UNL1        0.1189
     10 C          63.0816   85.4202   12.6516 C.ar    1  UNL1        0.2416
     11 N          63.2295   86.8124   13.1901 N.ar    1  UNL1       -0.2089
     12 N          63.2688   82.8496   12.9787 N.ar    1  UNL1       -0.2826
     13 C          63.0490   81.6086   13.7919 C.ar    1  UNL1        0.1826
     14 N          62.9591   80.4460   12.8483 N.ar    1  UNL1       -0.2280
     15 C          63.1233   80.9686   11.4519 C.ar    1  UNL1        0.0786
     16 C          63.1001   80.1495   10.1956 C.3     1  UNL1        0.0538
     17 C          63.3147   82.4541   11.5325 C.ar    1  UNL1        0.0963
     18 O          62.5985   85.2064   11.2477 O.3     1  UNL1       -0.4551
     19 C          61.6427   86.1815   10.6268 C.3     1  UNL1        0.2543
     20 N          65.2433   92.0447   15.1873 N.pl3   1  UNL1       -0.2786
     21 H          64.8849   92.8585   15.6098 H       1  UNL1        0.1555
     22 N          67.8888   92.0966   14.8079 N.ar    1  UNL1       -0.2383
     23 N          68.7868   92.2009   13.6110 N.ar    1  UNL1       -0.1729
     24 C          67.9217   92.2931   12.3890 C.ar    1  UNL1        0.0773
     25 C          66.4891   92.2458   12.8308 C.ar    1  UNL1        0.0244
     26 C          66.4687   92.1244   14.3257 C.ar    1  UNL1        0.1275
     27 C          65.2485   92.3042   11.9895 C.3     1  UNL1        0.0304
     28 C          65.1344   92.4242   10.4986 C.3     1  UNL1        0.0048
     29 C          66.2324   92.5156    9.4810 C.3     1  UNL1        0.0007
     30 C          67.7160   92.5094    9.7027 C.3     1  UNL1        0.0064
     31 C          68.4678   92.4104   10.9969 C.3     1  UNL1        0.0473
     32 C          69.6582   92.5477   16.6561 C.3     1  UNL1        0.0285
     33 C          68.3329   91.9843   16.2362 C.3     1  UNL1        0.1289
@<TRIPOS>BOND
     1    32    33    1
     2    33    22    1
     3    22    23   ar
     4    23    24   ar
     5    24    25   ar
     6    25    26   ar
     7    26    20    1
     8    20     1    1
     9     1     2   ar
    10     2     3   ar
    11     3     6    1
    12     6     7   ar
    13     7     8   ar
    14     8     9   ar
    15     9    12    1
    16    12    13   ar
    17    13    14   ar
    18    14    15   ar
    19    15    16    1
    20    15    17   ar
    21     9    10   ar
    22    10    18    1
    23    18    19    1
    24    10    11   ar
    25     3     4   ar
    26     4     5   ar
    27    25    27    1
    28    27    28    1
    29    28    29    1
    30    29    30    1
    31    30    31    1
    32    26    22   ar
    33     5     1   ar
    34    31    24    1
    35    11     6   ar
    36    17    12   ar
    37    20    21    1
@<TRIPOS>MOLECULE
*****
 33 37 0 0 0
SMALL
GASTEIGER

@<TRIPOS>ATOM
      1 C          62.0651   86.7592   12.1512 C.ar    1  UNL1        0.1646
      2 N          63.1264   87.8138   12.2567 N.ar    1  UNL1       -0.2224
      3 C          62.6678   89.0123   11.4798 C.ar    1  UNL1        0.1074
      4 C          61.3231   88.6983   10.8942 C.ar    1  UNL1        0.0588
      5 S          60.9506   87.3057   11.3092 S.2     1  UNL1       -0.0508
      6 C          63.4217   90.2988   11.3172 C.ar    1  UNL1        0.1026
      7 C          63.2776   91.0982   10.0561 C.ar    1  UNL1        0.0224
      8 C          64.0315   92.3848    9.8935 C.ar    1  UNL1        0.0239
      9 C          64.9294   92.8720   10.9918 C.ar    1  UNL1        0.1189
     10 C          65.0735   92.0726   12.2529 C.ar    1  UNL1        0.2416
     11 N          64.3196   90.7861   12.4155 N.ar    1  UNL1       -0.2089
     12 N          65.6833   94.1586   10.8292 N.ar    1  UNL1       -0.2826
     13 C          65.9702   95.1553   11.9127 C.ar    1  UNL1        0.1826
     14 N          66.7468   96.2870   11.3075 N.ar    1  UNL1       -0.2280
     15 C          66.9398   95.9897    9.8500 C.ar    1  UNL1        0.0786
     16 C          67.6631   96.8557    8.8618 C.3     1  UNL1        0.0538
     17 C          66.2825   94.6742    9.5543 C.ar    1  UNL1        0.0963
     18 O          65.9714   92.5598   13.3512 O.3     1  UNL1       -0.4551
     19 C          67.3869   92.0705   13.4354 C.3     1  UNL1        0.2543
     20 N          62.1103   85.3971   12.7777 N.pl3   1  UNL1       -0.2786
     21 H          61.8775   85.2842   13.7276 H       1  UNL1        0.1555
     22 N          63.0449   84.2415   10.5560 N.ar    1  UNL1       -0.2383
     23 N          63.3109   82.8292   10.1263 N.ar    1  UNL1       -0.1729
     24 C          62.9406   81.9217   11.2618 C.ar    1  UNL1        0.0773
     25 C          62.4459   82.7732   12.3932 C.ar    1  UNL1        0.0244
     26 C          62.5103   84.2069   11.9570 C.ar    1  UNL1        0.1275
     27 C          61.9587   82.3418   13.7447 C.3     1  UNL1        0.0304
     28 C          61.8460   80.9522   14.2986 C.3     1  UNL1        0.0048
     29 C          62.1927   79.6512   13.6377 C.3     1  UNL1        0.0007
     30 C          62.7376   79.4180   12.2597 C.3     1  UNL1        0.0064
     31 C          63.0705   80.4285   11.2024 C.3     1  UNL1        0.0473
     32 C          62.6733   85.5776    8.3589 C.3     1  UNL1        0.0285
     33 C          63.2734   85.4724    9.7296 C.3     1  UNL1        0.1289
@<TRIPOS>BOND
     1    32    33    1
     2    33    22    1
     3    22    23   ar
     4    23    24   ar
     5    24    25   ar
     6    25    26   ar
     7    26    20    1
     8    20     1    1
     9     1     2   ar
    10     2     3   ar
    11     3     6    1
    12     6     7   ar
    13     7     8   ar
    14     8     9   ar
    15     9    12    1
    16    12    13   ar
    17    13    14   ar
    18    14    15   ar
    19    15    16    1
    20    15    17   ar
    21     9    10   ar
    22    10    18    1
    23    18    19    1
    24    10    11   ar
    25     3     4   ar
    26     4     5   ar
    27    25    27    1
    28    27    28    1
    29    28    29    1
    30    29    30    1
    31    30    31    1
    32    26    22   ar
    33     5     1   ar
    34    31    24    1
    35    11     6   ar
    36    17    12   ar
    37    20    21    1
