@<TRIPOS>MOLECULE
*****
 44 48 0 0 0
SMALL
GASTEIGER

@<TRIPOS>ATOM
      1 C          60.1997   87.5344    8.7888 C.ar    1  UNL1        0.1690
      2 C          60.0512   88.8408    8.0668 C.ar    1  UNL1        0.1754
      3 C          60.8151   90.0454    8.5311 C.ar    1  UNL1        0.0776
      4 C          61.7275   89.9435    9.7173 C.ar    1  UNL1        0.1512
      5 O          62.4914   91.1480   10.1815 O.2     1  UNL1       -0.4530
      6 C          63.4038   91.0462   11.3678 C.ar    1  UNL1        0.1543
      7 C          64.1677   92.2507   11.8320 C.ar    1  UNL1        0.0747
      8 C          65.0802   92.1489   13.0183 C.ar    1  UNL1        0.1445
      9 C          65.2286   90.8425   13.7403 C.ar    1  UNL1        0.0680
     10 C          64.4647   89.6379   13.2760 C.ar    1  UNL1        0.1478
     11 C          63.5523   89.7398   12.0898 C.ar    1  UNL1        0.1076
     12 C          62.7883   88.5352   11.6255 C.ar    1  UNL1        0.2042
     13 O          62.9368   87.2288   12.3475 O.2     1  UNL1       -0.2863
     14 C          61.8760   88.6371   10.4393 C.ar    1  UNL1        0.0731
     15 C          61.1121   87.4326    9.9751 C.ar    1  UNL1        0.0252
     16 C          66.1410   90.7406   14.9265 C.2     1  UNL1        0.0049
     17 C          66.9049   91.9451   15.3907 C.2     1  UNL1        0.0130
     18 C          66.7564   93.2515   14.6687 C.3     1  UNL1        0.1517
     19 C          66.9480   94.6969   14.3163 C.3     1  UNL1        0.0483
     20 C          67.7353   93.6516   15.7326 C.3     1  UNL1        0.0483
     21 O          65.8440   93.3534   13.4825 O.3     1  UNL1       -0.4783
     22 C          59.9992   85.4550    7.2443 C.3     1  UNL1        0.2526
     23 O          59.4358   86.3299    8.3246 O.3     1  UNL1       -0.4687
     24 O          59.1388   88.9427    6.8806 O.3     1  UNL1       -0.4675
     25 C          58.6693   90.2869    6.4087 C.3     1  UNL1        0.2321
     26 C          59.4017   90.9927    5.3063 C.ar    1  UNL1        0.0213
     27 C          58.6776   91.9737    4.4327 C.ar    1  UNL1        0.0016
     28 C          59.4101   92.6795    3.3303 C.ar    1  UNL1        0.0294
     29 C          60.8667   92.4042    3.1014 C.ar    1  UNL1        0.1401
     30 F          61.5992   93.1100    1.9989 F       1  UNL1       -0.2042
     31 C          61.5909   91.4231    3.9749 C.ar    1  UNL1        0.0294
     32 C          60.8584   90.7174    5.0773 C.ar    1  UNL1        0.0016
     33 O          64.6131   88.3315   13.9980 O.3     1  UNL1       -0.4703
     34 C          64.0770   88.1790   15.3906 C.3     1  UNL1        0.2318
     35 C          63.5360   86.8560   15.8453 C.2     1  UNL1        0.0218
     36 C          64.1047   85.5830   15.2921 C.2     1  UNL1        0.0142
     37 C          63.5637   84.2599   15.7468 C.2     1  UNL1        0.0727
     38 O          64.3035   82.9959   15.4233 O.co2   1  UNL1       -0.5446
     39 O          62.2827   84.2010   16.5252 O.co2   1  UNL1       -0.5446
     40 C          61.2606   86.1262   10.6971 C.3     1  UNL1        0.0550
     41 C          62.2164   85.0901   10.1840 C.2     1  UNL1       -0.0298
     42 C          62.8014   84.0784   11.1243 C.2     1  UNL1       -0.0475
     43 C          63.7571   83.0424   10.6114 C.3     1  UNL1        0.0260
     44 C          62.4305   84.1027   12.5776 C.3     1  UNL1        0.0260
@<TRIPOS>UNITY_ATOM_ATTR
38 1
charge -1
@<TRIPOS>BOND
     1    22    23    1
     2    23     1    1
     3     1     2   ar
     4     2    24    1
     5    24    25    1
     6    25    26    1
     7    26    27   ar
     8    27    28   ar
     9    28    29   ar
    10    29    30    1
    11    29    31   ar
    12    31    32   ar
    13     2     3   ar
    14     3     4   ar
    15     4     5   ar
    16     5     6   ar
    17     6     7   ar
    18     7     8   ar
    19     8     9   ar
    20     9    10   ar
    21    10    33    1
    22    33    34    1
    23    34    35    1
    24    35    36    2
    25    36    37    1
    26    37    38   ar
    27    37    39   ar
    28    10    11   ar
    29    11    12   ar
    30    12    13    2
    31    12    14   ar
    32    14    15   ar
    33    15    40    1
    34    40    41    1
    35    41    42    2
    36    42    43    1
    37    42    44    1
    38     9    16    1
    39    16    17    2
    40    17    18    1
    41    18    19    1
    42    18    20    1
    43    18    21    1
    44    15     1   ar
    45    32    26   ar
    46    14     4   ar
    47    11     6   ar
    48    21     8    1
@<TRIPOS>MOLECULE
*****
 44 48 0 0 0
SMALL
GASTEIGER

@<TRIPOS>ATOM
      1 C          63.8505   91.0760   12.7442 C.ar    1  UNL1        0.1690
      2 C          64.6819   90.9398   13.9852 C.ar    1  UNL1        0.1754
      3 C          64.9168   89.5854   14.5857 C.ar    1  UNL1        0.0776
      4 C          64.3203   88.3673   13.9451 C.ar    1  UNL1        0.1512
      5 O          64.5552   87.0130   14.5456 O.2     1  UNL1       -0.4530
      6 C          63.9587   85.7948   13.9050 C.ar    1  UNL1        0.1543
      7 C          64.1936   84.4405   14.5055 C.ar    1  UNL1        0.0747
      8 C          63.5971   83.2223   13.8649 C.ar    1  UNL1        0.1445
      9 C          62.7656   83.3585   12.6239 C.ar    1  UNL1        0.0680
     10 C          62.5307   84.7130   12.0234 C.ar    1  UNL1        0.1478
     11 C          63.1272   85.9310   12.6640 C.ar    1  UNL1        0.1076
     12 C          62.8923   87.2855   12.0635 C.ar    1  UNL1        0.2042
     13 O          62.0609   87.4217   10.8225 O.2     1  UNL1       -0.2863
     14 C          63.4888   88.5035   12.7041 C.ar    1  UNL1        0.0731
     15 C          63.2539   89.8579   12.1037 C.ar    1  UNL1        0.0252
     16 C          62.1691   82.1405   11.9833 C.2     1  UNL1        0.0049
     17 C          62.4040   80.7861   12.5838 C.2     1  UNL1        0.0130
     18 C          63.2355   80.6499   13.8248 C.3     1  UNL1        0.1517
     19 C          63.9453   80.0139   14.9830 C.3     1  UNL1        0.0483
     20 C          62.8855   79.2109   13.5865 C.3     1  UNL1        0.0483
     21 O          63.8320   81.8680   14.4654 O.3     1  UNL1       -0.4783
     22 C          64.0746   92.7207   10.7456 C.3     1  UNL1        0.2526
     23 O          63.6155   92.4303   12.1438 O.3     1  UNL1       -0.4687
     24 O          65.2784   92.1579   14.6258 O.3     1  UNL1       -0.4675
     25 C          66.6334   92.6413   14.2011 C.3     1  UNL1        0.2321
     26 C          66.8682   93.0626   12.7808 C.ar    1  UNL1        0.0213
     27 C          66.4791   94.4403   12.3331 C.ar    1  UNL1        0.0016
     28 C          66.7139   94.8616   10.9127 C.ar    1  UNL1        0.0294
     29 C          67.3377   93.9051    9.9401 C.ar    1  UNL1        0.1401
     30 F          67.5725   94.3264    8.5197 F       1  UNL1       -0.2042
     31 C          67.7268   92.5274   10.3878 C.ar    1  UNL1        0.0294
     32 C          67.4920   92.1061   11.8081 C.ar    1  UNL1        0.0016
     33 O          61.6993   84.8492   10.7824 O.3     1  UNL1       -0.4703
     34 C          62.3482   85.2192    9.4817 C.3     1  UNL1        0.2318
     35 C          61.5792   85.9952    8.4538 C.2     1  UNL1        0.0218
     36 C          60.3493   86.7551    8.8533 C.2     1  UNL1        0.0142
     37 C          59.5802   87.5311    7.8254 C.2     1  UNL1        0.0727
     38 O          59.9282   88.9644    7.5525 O.co2   1  UNL1       -0.5446
     39 O          58.4631   86.8736    7.0704 O.co2   1  UNL1       -0.5446
     40 C          62.4225   89.9941   10.8626 C.3     1  UNL1        0.0550
     41 C          61.2134   90.8820   10.8636 C.2     1  UNL1       -0.0298
     42 C          59.9225   90.3905   11.4485 C.2     1  UNL1       -0.0475
     43 C          58.7135   91.2783   11.4495 C.3     1  UNL1        0.0260
     44 C          59.8407   89.0112   12.0323 C.3     1  UNL1        0.0260
@<TRIPOS>UNITY_ATOM_ATTR
38 1
charge -1
@<TRIPOS>BOND
     1    22    23    1
     2    23     1    1
     3     1     2   ar
     4     2    24    1
     5    24    25    1
     6    25    26    1
     7    26    27   ar
     8    27    28   ar
     9    28    29   ar
    10    29    30    1
    11    29    31   ar
    12    31    32   ar
    13     2     3   ar
    14     3     4   ar
    15     4     5   ar
    16     5     6   ar
    17     6     7   ar
    18     7     8   ar
    19     8     9   ar
    20     9    10   ar
    21    10    33    1
    22    33    34    1
    23    34    35    1
    24    35    36    2
    25    36    37    1
    26    37    38   ar
    27    37    39   ar
    28    10    11   ar
    29    11    12   ar
    30    12    13    2
    31    12    14   ar
    32    14    15   ar
    33    15    40    1
    34    40    41    1
    35    41    42    2
    36    42    43    1
    37    42    44    1
    38     9    16    1
    39    16    17    2
    40    17    18    1
    41    18    19    1
    42    18    20    1
    43    18    21    1
    44    15     1   ar
    45    32    26   ar
    46    14     4   ar
    47    11     6   ar
    48    21     8    1
