@<TRIPOS>MOLECULE
*****
 21 22 0 0 0
SMALL
GASTEIGER

@<TRIPOS>ATOM
      1 N          63.5007   86.7415   15.6602 N.3     1  UNL1       -0.1588
      2 C          63.0195   87.6490   16.7533 C.3     1  UNL1        0.0998
      3 C          63.2578   89.1271   16.6602 C.3     1  UNL1        0.0418
      4 C          63.9772   89.6976   15.4741 C.2     1  UNL1       -0.0331
      5 C          64.2155   91.1756   15.3811 C.2     1  UNL1        0.0412
      6 C          64.4584   88.7900   14.3811 C.3     1  UNL1        0.0418
      7 C          64.2201   87.3120   14.4741 C.3     1  UNL1        0.0998
      8 S          63.2624   85.2635   15.7533 S.O2    1  UNL1        0.0438
      9 O          64.3813   85.0221   14.7838 O.2     1  UNL1       -0.1573
     10 O          62.1435   85.5049   16.7227 O.2     1  UNL1       -0.1573
     11 C          62.4377   83.0455   14.6808 C.3     1  UNL1        0.0289
     12 C          63.0241   83.7854   15.8463 C.3     1  UNL1        0.1692
     13 C          64.9349   91.7461   14.1950 C.1     1  UNL1       -0.0583
     14 C          65.6544   92.3166   13.0088 C.1     1  UNL1       -0.0405
     15 C          66.3738   92.8871   11.8227 C.ar    1  UNL1        0.1224
     16 C          67.2919   92.0195   11.0137 C.ar    1  UNL1        0.0276
     17 C          68.0113   92.5900    9.8276 C.ar    1  UNL1        0.0034
     18 C          67.8127   94.0281    9.4504 C.ar    1  UNL1        0.0148
     19 C          66.8947   94.8958   10.2593 C.ar    1  UNL1        0.0600
     20 C          66.6961   96.3339    9.8821 C.3     1  UNL1        0.0521
     21 N          66.1752   94.3253   11.4455 N.ar    1  UNL1       -0.2414
@<TRIPOS>BOND
     1    11    12    1
     2    12     8    1
     3     8     9    2
     4     8    10    2
     5     8     1    1
     6     1     2    1
     7     2     3    1
     8     3     4    1
     9     4     5    2
    10     5    13    1
    11    13    14    3
    12    14    15    1
    13    15    16   ar
    14    16    17   ar
    15    17    18   ar
    16    18    19   ar
    17    19    20    1
    18    19    21   ar
    19     4     6    1
    20     6     7    1
    21     7     1    1
    22    21    15   ar
@<TRIPOS>MOLECULE
*****
 21 22 0 0 0
SMALL
GASTEIGER

@<TRIPOS>ATOM
      1 N          63.4929   83.8321   14.5316 N.3     1  UNL1       -0.1588
      2 C          62.8130   84.0244   15.8547 C.3     1  UNL1        0.0998
      3 C          62.7545   85.3882   16.4766 C.3     1  UNL1        0.0418
      4 C          63.3758   86.5596   15.7755 C.2     1  UNL1       -0.0331
      5 C          63.3173   87.9233   16.3974 C.2     1  UNL1        0.0412
      6 C          64.0557   86.3672   14.4523 C.3     1  UNL1        0.0418
      7 C          64.1143   85.0035   13.8304 C.3     1  UNL1        0.0998
      8 S          63.5514   82.4684   13.9096 S.O2    1  UNL1        0.0438
      9 O          62.6225   81.9469   14.9657 O.2     1  UNL1       -0.1573
     10 O          64.4803   82.9898   12.8536 O.2     1  UNL1       -0.1573
     11 C          62.3630   80.2789   13.1721 C.3     1  UNL1        0.0289
     12 C          63.6099   81.1046   13.2877 C.3     1  UNL1        0.1692
     13 C          63.9387   89.0947   15.6962 C.1     1  UNL1       -0.0583
     14 C          64.5602   90.2661   14.9951 C.1     1  UNL1       -0.0405
     15 C          65.1815   91.4375   14.2939 C.ar    1  UNL1        0.1224
     16 C          66.0278   92.4089   15.0622 C.ar    1  UNL1        0.0276
     17 C          66.6492   93.5803   14.3611 C.ar    1  UNL1        0.0034
     18 C          66.4244   93.7804   12.8915 C.ar    1  UNL1        0.0148
     19 C          65.5782   92.8090   12.1232 C.ar    1  UNL1        0.0600
     20 C          65.3534   93.0090   10.6537 C.3     1  UNL1        0.0521
     21 N          64.9567   91.6375   12.8244 N.ar    1  UNL1       -0.2414
@<TRIPOS>BOND
     1    11    12    1
     2    12     8    1
     3     8     9    2
     4     8    10    2
     5     8     1    1
     6     1     2    1
     7     2     3    1
     8     3     4    1
     9     4     5    2
    10     5    13    1
    11    13    14    3
    12    14    15    1
    13    15    16   ar
    14    16    17   ar
    15    17    18   ar
    16    18    19   ar
    17    19    20    1
    18    19    21   ar
    19     4     6    1
    20     6     7    1
    21     7     1    1
    22    21    15   ar
@<TRIPOS>MOLECULE
*****
 21 22 0 0 0
SMALL
GASTEIGER

@<TRIPOS>ATOM
      1 N          63.1470   83.0924   13.6024 N.3     1  UNL1       -0.1588
      2 C          62.8051   83.0752   15.0628 C.3     1  UNL1        0.0998
      3 C          62.9481   84.3240   15.8814 C.3     1  UNL1        0.0418
      4 C          63.4330   85.5900   15.2395 C.2     1  UNL1       -0.0331
      5 C          63.5760   86.8388   16.0581 C.2     1  UNL1        0.0412
      6 C          63.7750   85.6072   13.7792 C.3     1  UNL1        0.0418
      7 C          63.6320   84.3584   12.9606 C.3     1  UNL1        0.0998
      8 S          63.0040   81.8436   12.7839 S.O2    1  UNL1        0.0438
      9 O          62.7631   82.6744   11.5584 O.2     1  UNL1       -0.1573
     10 O          63.2449   81.0128   14.0093 O.2     1  UNL1       -0.1573
     11 C          63.0864   80.6397   10.4831 C.3     1  UNL1        0.0289
     12 C          62.8610   80.5948   11.9653 C.3     1  UNL1        0.1692
     13 C          64.0610   88.1049   15.4163 C.1     1  UNL1       -0.0583
     14 C          64.5459   89.3709   14.7744 C.1     1  UNL1       -0.0405
     15 C          65.0309   90.6369   14.1325 C.ar    1  UNL1        0.1224
     16 C          64.5097   91.0424   12.7856 C.ar    1  UNL1        0.0276
     17 C          64.9947   92.3084   12.1438 C.ar    1  UNL1        0.0034
     18 C          66.0008   93.1690   12.8488 C.ar    1  UNL1        0.0148
     19 C          66.5219   92.7637   14.1957 C.ar    1  UNL1        0.0600
     20 C          67.5280   93.6243   14.9007 C.3     1  UNL1        0.0521
     21 N          66.0370   91.4976   14.8376 N.ar    1  UNL1       -0.2414
@<TRIPOS>BOND
     1    11    12    1
     2    12     8    1
     3     8     9    2
     4     8    10    2
     5     8     1    1
     6     1     2    1
     7     2     3    1
     8     3     4    1
     9     4     5    2
    10     5    13    1
    11    13    14    3
    12    14    15    1
    13    15    16   ar
    14    16    17   ar
    15    17    18   ar
    16    18    19   ar
    17    19    20    1
    18    19    21   ar
    19     4     6    1
    20     6     7    1
    21     7     1    1
    22    21    15   ar
@<TRIPOS>MOLECULE
*****
 21 22 0 0 0
SMALL
GASTEIGER

@<TRIPOS>ATOM
      1 N          62.7884   83.7822   12.3269 N.3     1  UNL1       -0.1588
      2 C          62.0559   84.3710   11.1580 C.3     1  UNL1        0.0998
      3 C          62.0557   85.8557   10.9436 C.3     1  UNL1        0.0418
      4 C          62.7880   86.7514   11.8982 C.2     1  UNL1       -0.0331
      5 C          62.7877   88.2360   11.6839 C.2     1  UNL1        0.0412
      6 C          63.5205   86.1625   13.0672 C.3     1  UNL1        0.0418
      7 C          63.5208   84.6779   13.2815 C.3     1  UNL1        0.0998
      8 S          62.7887   82.2976   12.5413 S.O2    1  UNL1        0.0438
      9 O          63.2254   82.0926   11.1210 O.2     1  UNL1       -0.1573
     10 O          62.3519   82.5025   13.9616 O.2     1  UNL1       -0.1573
     11 C          61.8181   80.1938   13.7169 C.3     1  UNL1        0.0289
     12 C          62.7889   80.8129   12.7556 C.3     1  UNL1        0.1692
     13 C          63.5201   89.1317   12.6385 C.1     1  UNL1       -0.0583
     14 C          64.2524   90.0274   13.5932 C.1     1  UNL1       -0.0405
     15 C          64.9847   90.9232   14.5478 C.ar    1  UNL1        0.1224
     16 C          64.2868   91.4515   15.7660 C.ar    1  UNL1        0.0276
     17 C          65.0191   92.3472   16.7206 C.ar    1  UNL1        0.0034
     18 C          66.4494   92.7146   16.4572 C.ar    1  UNL1        0.0148
     19 C          67.1473   92.1863   15.2391 C.ar    1  UNL1        0.0600
     20 C          68.5776   92.5537   14.9757 C.3     1  UNL1        0.0521
     21 N          66.4150   91.2906   14.2844 N.ar    1  UNL1       -0.2414
@<TRIPOS>BOND
     1    11    12    1
     2    12     8    1
     3     8     9    2
     4     8    10    2
     5     8     1    1
     6     1     2    1
     7     2     3    1
     8     3     4    1
     9     4     5    2
    10     5    13    1
    11    13    14    3
    12    14    15    1
    13    15    16   ar
    14    16    17   ar
    15    17    18   ar
    16    18    19   ar
    17    19    20    1
    18    19    21   ar
    19     4     6    1
    20     6     7    1
    21     7     1    1
    22    21    15   ar
@<TRIPOS>MOLECULE
*****
 21 22 0 0 0
SMALL
GASTEIGER

@<TRIPOS>ATOM
      1 N          62.5805   85.0901   12.7495 N.3     1  UNL1       -0.1588
      2 C          61.6531   85.1594   11.5726 C.3     1  UNL1        0.0998
      3 C          61.5617   86.4187   10.7628 C.3     1  UNL1        0.0418
      4 C          62.3977   87.6087   11.1299 C.2     1  UNL1       -0.0331
      5 C          62.3063   88.8680   10.3201 C.2     1  UNL1        0.0412
      6 C          63.3252   87.5395   12.3067 C.3     1  UNL1        0.0418
      7 C          63.4166   86.2801   13.1165 C.3     1  UNL1        0.0998
      8 S          62.6719   83.8308   13.5592 S.O2    1  UNL1        0.0438
      9 O          62.1022   84.5518   14.7448 O.2     1  UNL1       -0.1573
     10 O          63.2417   83.1098   12.3737 O.2     1  UNL1       -0.1573
     11 C          61.7271   81.4990   14.2075 C.3     1  UNL1        0.0289
     12 C          62.7633   82.5715   14.3690 C.3     1  UNL1        0.1692
     13 C          63.1424   90.0581   10.6871 C.1     1  UNL1       -0.0583
     14 C          63.9785   91.2482   11.0542 C.1     1  UNL1       -0.0405
     15 C          64.8145   92.4382   11.4213 C.ar    1  UNL1        0.1224
     16 C          65.0681   93.5172   10.4105 C.ar    1  UNL1        0.0276
     17 C          65.9042   94.7072   10.7775 C.ar    1  UNL1        0.0034
     18 C          66.4867   94.8184   12.1553 C.ar    1  UNL1        0.0148
     19 C          66.2331   93.7395   13.1661 C.ar    1  UNL1        0.0600
     20 C          66.8156   93.8507   14.5439 C.3     1  UNL1        0.0521
     21 N          65.3970   92.5494   12.7991 N.ar    1  UNL1       -0.2414
@<TRIPOS>BOND
     1    11    12    1
     2    12     8    1
     3     8     9    2
     4     8    10    2
     5     8     1    1
     6     1     2    1
     7     2     3    1
     8     3     4    1
     9     4     5    2
    10     5    13    1
    11    13    14    3
    12    14    15    1
    13    15    16   ar
    14    16    17   ar
    15    17    18   ar
    16    18    19   ar
    17    19    20    1
    18    19    21   ar
    19     4     6    1
    20     6     7    1
    21     7     1    1
    22    21    15   ar
@<TRIPOS>MOLECULE
*****
 21 22 0 0 0
SMALL
GASTEIGER

@<TRIPOS>ATOM
      1 N          63.3539   81.8802   12.1254 N.3     1  UNL1       -0.1588
      2 C          63.4369   81.4946   13.5726 C.3     1  UNL1        0.0998
      3 C          63.6727   82.5456   14.6165 C.3     1  UNL1        0.0418
      4 C          63.8254   83.9823   14.2133 C.2     1  UNL1       -0.0331
      5 C          64.0612   85.0333   15.2572 C.2     1  UNL1        0.0412
      6 C          63.7425   84.3679   12.7661 C.3     1  UNL1        0.0418
      7 C          63.5067   83.3169   11.7222 C.3     1  UNL1        0.0998
      8 S          63.1182   80.8292   11.0815 S.O2    1  UNL1        0.0438
      9 O          62.5973   79.8985   12.1362 O.2     1  UNL1       -0.1573
     10 O          63.6390   81.7599   10.0268 O.2     1  UNL1       -0.1573
     11 C          62.7627   78.3375   10.4375 C.3     1  UNL1        0.0289
     12 C          62.8824   79.7782   10.0376 C.3     1  UNL1        0.1692
     13 C          64.2140   86.4699   14.8539 C.1     1  UNL1       -0.0583
     14 C          64.3668   87.9066   14.4506 C.1     1  UNL1       -0.0405
     15 C          64.5196   89.3433   14.0474 C.ar    1  UNL1        0.1224
     16 C          63.8128   89.8596   12.8292 C.ar    1  UNL1        0.0276
     17 C          63.9656   91.2963   12.4259 C.ar    1  UNL1        0.0034
     18 C          64.8251   92.2167   13.2408 C.ar    1  UNL1        0.0148
     19 C          65.5319   91.7004   14.4590 C.ar    1  UNL1        0.0600
     20 C          66.3914   92.6208   15.2739 C.3     1  UNL1        0.0521
     21 N          65.3791   90.2637   14.8623 N.ar    1  UNL1       -0.2414
@<TRIPOS>BOND
     1    11    12    1
     2    12     8    1
     3     8     9    2
     4     8    10    2
     5     8     1    1
     6     1     2    1
     7     2     3    1
     8     3     4    1
     9     4     5    2
    10     5    13    1
    11    13    14    3
    12    14    15    1
    13    15    16   ar
    14    16    17   ar
    15    17    18   ar
    16    18    19   ar
    17    19    20    1
    18    19    21   ar
    19     4     6    1
    20     6     7    1
    21     7     1    1
    22    21    15   ar
@<TRIPOS>MOLECULE
*****
 21 22 0 0 0
SMALL
GASTEIGER

@<TRIPOS>ATOM
      1 N          63.4649   84.2496   14.7868 N.3     1  UNL1       -0.1588
      2 C          63.2398   84.6802   16.2059 C.3     1  UNL1        0.0998
      3 C          63.3438   86.1303   16.5752 C.3     1  UNL1        0.0418
      4 C          63.6729   87.1499   15.5254 C.2     1  UNL1       -0.0331
      5 C          63.7768   88.6000   15.8946 C.2     1  UNL1        0.0412
      6 C          63.8980   86.7193   14.1063 C.3     1  UNL1        0.0418
      7 C          63.7940   85.2692   13.7370 C.3     1  UNL1        0.0998
      8 S          63.3610   82.7995   14.4176 S.O2    1  UNL1        0.0438
      9 O          64.4814   82.4787   15.3619 O.2     1  UNL1       -0.1573
     10 O          62.2406   83.1203   13.4732 O.2     1  UNL1       -0.1573
     11 C          63.1047   80.9507   12.6104 C.3     1  UNL1        0.0289
     12 C          63.2570   81.3494   14.0483 C.3     1  UNL1        0.1692
     13 C          64.1059   89.6195   14.8448 C.1     1  UNL1       -0.0583
     14 C          64.4350   90.6391   13.7949 C.1     1  UNL1       -0.0405
     15 C          64.7640   91.6586   12.7451 C.ar    1  UNL1        0.1224
     16 C          64.3283   91.4417   11.3262 C.ar    1  UNL1        0.0276
     17 C          64.6573   92.4613   10.2763 C.ar    1  UNL1        0.0034
     18 C          65.4222   93.6978   10.6453 C.ar    1  UNL1        0.0148
     19 C          65.8579   93.9147   12.0641 C.ar    1  UNL1        0.0600
     20 C          66.6228   95.1512   12.4330 C.3     1  UNL1        0.0521
     21 N          65.5289   92.8951   13.1140 N.ar    1  UNL1       -0.2414
@<TRIPOS>BOND
     1    11    12    1
     2    12     8    1
     3     8     9    2
     4     8    10    2
     5     8     1    1
     6     1     2    1
     7     2     3    1
     8     3     4    1
     9     4     5    2
    10     5    13    1
    11    13    14    3
    12    14    15    1
    13    15    16   ar
    14    16    17   ar
    15    17    18   ar
    16    18    19   ar
    17    19    20    1
    18    19    21   ar
    19     4     6    1
    20     6     7    1
    21     7     1    1
    22    21    15   ar
@<TRIPOS>MOLECULE
*****
 21 22 0 0 0
SMALL
GASTEIGER

@<TRIPOS>ATOM
      1 N          72.4787   79.4768   11.3957 N.3     1  UNL1       -0.1588
      2 C          72.6813   79.9254   12.8127 C.3     1  UNL1        0.0998
      3 C          72.5153   78.9492   13.9394 C.3     1  UNL1        0.0418
      4 C          72.1467   77.5245   13.6492 C.2     1  UNL1       -0.0331
      5 C          71.9806   76.5483   14.7759 C.2     1  UNL1        0.0412
      6 C          71.9441   77.0759   12.2323 C.3     1  UNL1        0.0418
      7 C          72.1102   78.0521   11.1055 C.3     1  UNL1        0.0998
      8 S          72.6448   80.4530   10.2690 S.O2    1  UNL1        0.0438
      9 O          72.1214   81.5527   11.1447 O.2     1  UNL1       -0.1573
     10 O          73.1681   79.3533    9.3934 O.2     1  UNL1       -0.1573
     11 C          72.1187   82.7589    9.1939 C.3     1  UNL1        0.0289
     12 C          72.8108   81.4292    9.1423 C.3     1  UNL1        0.1692
     13 C          71.6120   75.1236   14.4857 C.1     1  UNL1       -0.0583
     14 C          71.2435   73.6988   14.1954 C.1     1  UNL1       -0.0405
     15 C          70.8749   72.2740   13.9052 C.ar    1  UNL1        0.1224
     16 C          71.5066   71.1614   14.6883 C.ar    1  UNL1        0.0276
     17 C          71.1381   69.7367   14.3981 C.ar    1  UNL1        0.0034
     18 C          70.1377   69.4245   13.3249 C.ar    1  UNL1        0.0148
     19 C          69.5060   70.5370   12.5418 C.ar    1  UNL1        0.0600
     20 C          68.5056   70.2248   11.4686 C.3     1  UNL1        0.0521
     21 N          69.8745   71.9618   12.8320 N.ar    1  UNL1       -0.2414
@<TRIPOS>BOND
     1    11    12    1
     2    12     8    1
     3     8     9    2
     4     8    10    2
     5     8     1    1
     6     1     2    1
     7     2     3    1
     8     3     4    1
     9     4     5    2
    10     5    13    1
    11    13    14    3
    12    14    15    1
    13    15    16   ar
    14    16    17   ar
    15    17    18   ar
    16    18    19   ar
    17    19    20    1
    18    19    21   ar
    19     4     6    1
    20     6     7    1
    21     7     1    1
    22    21    15   ar
@<TRIPOS>MOLECULE
*****
 21 22 0 0 0
SMALL
GASTEIGER

@<TRIPOS>ATOM
      1 N          45.3096   70.7404   15.0584 N.3     1  UNL1       -0.1588
      2 C          45.8747   69.7893   16.0713 C.3     1  UNL1        0.0998
      3 C          46.3396   70.3006   17.4027 C.3     1  UNL1        0.0418
      4 C          46.2393   71.7629   17.7211 C.2     1  UNL1       -0.0331
      5 C          46.7042   72.2742   19.0525 C.2     1  UNL1        0.0412
      6 C          45.6742   72.7140   16.7082 C.3     1  UNL1        0.0418
      7 C          45.2093   72.2027   15.3769 C.3     1  UNL1        0.0998
      8 S          44.8448   70.2291   13.7271 S.O2    1  UNL1        0.0438
      9 O          43.6330   71.1091   13.8122 O.2     1  UNL1       -0.1573
     10 O          46.0565   69.3491   13.6419 O.2     1  UNL1       -0.1573
     11 C          44.7474   68.3321   11.9545 C.3     1  UNL1        0.0289
     12 C          44.3799   69.7179   12.3957 C.3     1  UNL1        0.1692
     13 C          46.6039   73.7365   19.3710 C.1     1  UNL1       -0.0583
     14 C          46.5036   75.1989   19.6895 C.1     1  UNL1       -0.0405
     15 C          46.4034   76.6613   20.0079 C.ar    1  UNL1        0.1224
     16 C          45.5710   77.1209   21.1681 C.ar    1  UNL1        0.0276
     17 C          45.4707   78.5832   21.4866 C.ar    1  UNL1        0.0034
     18 C          46.2028   79.5860   20.6449 C.ar    1  UNL1        0.0148
     19 C          47.0351   79.1265   19.4847 C.ar    1  UNL1        0.0600
     20 C          47.7672   80.1293   18.6430 C.3     1  UNL1        0.0521
     21 N          47.1354   77.6641   19.1662 N.ar    1  UNL1       -0.2414
@<TRIPOS>BOND
     1    11    12    1
     2    12     8    1
     3     8     9    2
     4     8    10    2
     5     8     1    1
     6     1     2    1
     7     2     3    1
     8     3     4    1
     9     4     5    2
    10     5    13    1
    11    13    14    3
    12    14    15    1
    13    15    16   ar
    14    16    17   ar
    15    17    18   ar
    16    18    19   ar
    17    19    20    1
    18    19    21   ar
    19     4     6    1
    20     6     7    1
    21     7     1    1
    22    21    15   ar
