@<TRIPOS>MOLECULE
*****
 27 29 0 0 0
SMALL
GASTEIGER

@<TRIPOS>ATOM
      1 C          62.1905   90.0623   10.5587 C.ar    1  UNL1       -0.0018
      2 C          60.7631   90.3896   10.8837 C.ar    1  UNL1        0.0179
      3 C          59.7622   89.2865   11.0605 C.ar    1  UNL1        0.1000
      4 N          60.1886   87.8560   10.9122 N.ar    1  UNL1       -0.2291
      5 C          61.6159   87.5287   10.5873 C.ar    1  UNL1        0.1333
      6 C          62.6169   88.6319   10.4105 C.ar    1  UNL1        0.0316
      7 N          62.0423   86.0982   10.4391 N.pl3   1  UNL1       -0.2781
      8 H          61.9892   85.6573    9.5604 H       1  UNL1        0.1555
      9 C          62.5497   85.3397   11.6295 C.ar    1  UNL1        0.1653
     10 N          63.0815   85.9407   12.8968 N.ar    1  UNL1       -0.2217
     11 C          63.4748   84.8194   13.8121 C.ar    1  UNL1        0.1177
     12 C          63.1861   83.5253   13.1105 C.ar    1  UNL1        0.1194
     13 S          62.6144   83.8469   11.7616 S.2     1  UNL1       -0.0409
     14 C          63.4269   82.1510   13.6612 C.1     1  UNL1        0.1086
     15 N          63.6677   80.7767   14.2119 N.1     1  UNL1       -0.1903
     16 C          63.1914   91.1655   10.3820 C.3     1  UNL1        0.0994
     17 C          68.8984   93.9365   15.8135 C.3     1  UNL1        0.1122
     18 N          68.0018   93.5479   14.6755 N.am    1  UNL1       -0.2870
     19 C          66.7779   92.7200   14.9339 C.2     1  UNL1        0.3041
     20 O          66.4507   92.2807   16.3303 O.2     1  UNL1       -0.2526
     21 N          65.8813   92.3314   13.7959 N.am    1  UNL1       -0.2614
     22 C          66.2085   92.7706   12.3995 C.3     1  UNL1        0.1123
     23 C          65.3118   92.3820   11.2615 C.3     1  UNL1        0.0942
     24 N          64.0880   91.5541   11.5199 N.3     1  UNL1       -0.2660
     25 C          63.7608   91.1148   12.9163 C.3     1  UNL1        0.0942
     26 C          64.6575   91.5035   14.0543 C.3     1  UNL1        0.1123
     27 H          68.2165   93.8362   13.7590 H       1  UNL1        0.1510
@<TRIPOS>BOND
     1    17    18    1
     2    18    19   am
     3    19    20    2
     4    19    21   am
     5    21    22    1
     6    22    23    1
     7    23    24    1
     8    24    16    1
     9    16     1    1
    10     1     2   ar
    11     2     3   ar
    12     3     4   ar
    13     4     5   ar
    14     5     7    1
    15     7     9    1
    16     9    10   ar
    17    10    11   ar
    18    11    12   ar
    19    12    14    1
    20    14    15    3
    21    12    13   ar
    22     5     6   ar
    23    24    25    1
    24    25    26    1
    25    26    21    1
    26     6     1   ar
    27    13     9   ar
    28    18    27    1
    29     7     8    1
@<TRIPOS>MOLECULE
*****
 27 29 0 0 0
SMALL
GASTEIGER

@<TRIPOS>ATOM
      1 C          60.9886   88.9511    9.7095 C.ar    1  UNL1       -0.0018
      2 C          59.9412   88.7249    8.6598 C.ar    1  UNL1        0.0179
      3 C          59.8597   87.4038    7.9541 C.ar    1  UNL1        0.1000
      4 N          60.8257   86.3090    8.2979 N.ar    1  UNL1       -0.2291
      5 C          61.8731   86.5351    9.3475 C.ar    1  UNL1        0.1333
      6 C          61.9546   87.8563   10.0534 C.ar    1  UNL1        0.0316
      7 N          62.8390   85.4403    9.6914 N.pl3   1  UNL1       -0.2781
      8 H          63.5012   85.1414    9.0270 H       1  UNL1        0.1555
      9 C          62.7961   84.8008   11.0476 C.ar    1  UNL1        0.1653
     10 N          62.4395   85.4848   12.3340 N.ar    1  UNL1       -0.2217
     11 C          62.5252   84.4718   13.4369 C.ar    1  UNL1        0.1177
     12 C          62.9347   83.1616   12.8320 C.ar    1  UNL1        0.1194
     13 S          63.1021   83.3650   11.3554 S.2     1  UNL1       -0.0409
     14 C          63.1407   81.8742   13.5737 C.1     1  UNL1        0.1086
     15 N          63.3467   80.5867   14.3153 N.1     1  UNL1       -0.1903
     16 C          61.0701   90.2722   10.4153 C.3     1  UNL1        0.0994
     17 C          67.7025   91.9064   15.2205 C.3     1  UNL1        0.1122
     18 N          66.4291   91.4955   14.5425 N.am    1  UNL1       -0.2870
     19 C          66.1636   91.9156   13.1273 C.2     1  UNL1        0.3041
     20 O          67.1715   92.7466   12.3900 O.2     1  UNL1       -0.2526
     21 N          64.8902   91.5048   12.4493 N.am    1  UNL1       -0.2614
     22 C          63.8823   90.6738   13.1865 C.3     1  UNL1        0.1123
     23 C          62.6090   90.2629   12.5085 C.3     1  UNL1        0.0942
     24 N          62.3435   90.6830   11.0933 N.3     1  UNL1       -0.2660
     25 C          63.3513   91.5140   10.3560 C.3     1  UNL1        0.0942
     26 C          64.6247   91.9249   11.0340 C.3     1  UNL1        0.1123
     27 H          65.7676   90.9501   15.0264 H       1  UNL1        0.1510
@<TRIPOS>BOND
     1    17    18    1
     2    18    19   am
     3    19    20    2
     4    19    21   am
     5    21    22    1
     6    22    23    1
     7    23    24    1
     8    24    16    1
     9    16     1    1
    10     1     2   ar
    11     2     3   ar
    12     3     4   ar
    13     4     5   ar
    14     5     7    1
    15     7     9    1
    16     9    10   ar
    17    10    11   ar
    18    11    12   ar
    19    12    14    1
    20    14    15    3
    21    12    13   ar
    22     5     6   ar
    23    24    25    1
    24    25    26    1
    25    26    21    1
    26     6     1   ar
    27    13     9   ar
    28    18    27    1
    29     7     8    1
@<TRIPOS>MOLECULE
*****
 27 29 0 0 0
SMALL
GASTEIGER

@<TRIPOS>ATOM
      1 C          64.2735   87.5506   15.0678 C.ar    1  UNL1       -0.0018
      2 C          63.6038   87.9168   16.3591 C.ar    1  UNL1        0.0179
      3 C          62.8868   89.2281   16.4866 C.ar    1  UNL1        0.1000
      4 N          62.8396   90.1733   15.3228 N.ar    1  UNL1       -0.2291
      5 C          63.5093   89.8072   14.0315 C.ar    1  UNL1        0.1333
      6 C          64.2263   88.4958   13.9040 C.ar    1  UNL1        0.0316
      7 N          63.4620   90.7524   12.8678 N.pl3   1  UNL1       -0.2781
      8 H          62.7122   90.7122   12.2311 H       1  UNL1        0.1555
      9 C          64.5572   91.7589   12.6741 C.ar    1  UNL1        0.1653
     10 N          65.3690   92.3987   13.7611 N.ar    1  UNL1       -0.2217
     11 C          66.3464   93.3375   13.1182 C.ar    1  UNL1        0.1177
     12 C          66.1387   93.2778   11.6338 C.ar    1  UNL1        0.1194
     13 S          65.0329   92.3022   11.3594 S.2     1  UNL1       -0.0409
     14 C          66.9026   94.0570   10.6046 C.1     1  UNL1        0.1086
     15 N          67.6665   94.8362    9.5754 N.1     1  UNL1       -0.1903
     16 C          64.9904   86.2392   14.9403 C.3     1  UNL1        0.0994
     17 C          59.8614   79.6992   14.1208 C.3     1  UNL1        0.1122
     18 N          60.6320   80.9483   14.4309 N.am    1  UNL1       -0.2870
     19 C          61.9081   81.2431   13.6999 C.2     1  UNL1        0.3041
     20 O          62.4138   80.2889   12.6588 O.2     1  UNL1       -0.2526
     21 N          62.6787   82.4921   14.0100 N.am    1  UNL1       -0.2614
     22 C          62.1731   83.4463   15.0510 C.3     1  UNL1        0.1123
     23 C          62.9437   84.6953   15.3611 C.3     1  UNL1        0.0942
     24 N          64.2199   84.9902   14.6302 N.3     1  UNL1       -0.2660
     25 C          64.7255   84.0360   13.5891 C.3     1  UNL1        0.0942
     26 C          63.9549   82.7870   13.2790 C.3     1  UNL1        0.1123
     27 H          60.3001   81.5745   15.1142 H       1  UNL1        0.1510
@<TRIPOS>BOND
     1    17    18    1
     2    18    19   am
     3    19    20    2
     4    19    21   am
     5    21    22    1
     6    22    23    1
     7    23    24    1
     8    24    16    1
     9    16     1    1
    10     1     2   ar
    11     2     3   ar
    12     3     4   ar
    13     4     5   ar
    14     5     7    1
    15     7     9    1
    16     9    10   ar
    17    10    11   ar
    18    11    12   ar
    19    12    14    1
    20    14    15    3
    21    12    13   ar
    22     5     6   ar
    23    24    25    1
    24    25    26    1
    25    26    21    1
    26     6     1   ar
    27    13     9   ar
    28    18    27    1
    29     7     8    1
@<TRIPOS>MOLECULE
*****
 27 29 0 0 0
SMALL
GASTEIGER

@<TRIPOS>ATOM
      1 C          63.8107   88.5960   14.6544 C.ar    1  UNL1       -0.0018
      2 C          63.1766   89.1298   15.9047 C.ar    1  UNL1        0.0179
      3 C          63.0283   88.2452   17.1070 C.ar    1  UNL1        0.1000
      4 N          63.5141   86.8269   17.0590 N.ar    1  UNL1       -0.2291
      5 C          64.1482   86.2931   15.8089 C.ar    1  UNL1        0.1333
      6 C          64.2965   87.1777   14.6065 C.ar    1  UNL1        0.0316
      7 N          64.6340   84.8747   15.7609 N.pl3   1  UNL1       -0.2781
      8 H          65.4304   84.6096   16.2753 H       1  UNL1        0.1555
      9 C          63.9063   83.8604   14.9294 C.ar    1  UNL1        0.1653
     10 N          62.7160   83.0563   15.3614 N.ar    1  UNL1       -0.2217
     11 C          62.3151   82.1710   14.2188 C.ar    1  UNL1        0.1177
     12 C          63.2577   82.4280   13.0806 C.ar    1  UNL1        0.1194
     13 S          64.2410   83.4721   13.5197 S.2     1  UNL1       -0.0409
     14 C          63.2230   81.7584   11.7387 C.1     1  UNL1        0.1086
     15 N          63.1883   81.0889   10.3969 N.1     1  UNL1       -0.1903
     16 C          63.9590   89.4806   13.4521 C.3     1  UNL1        0.0994
     17 C          59.1513   89.5011    6.6231 C.3     1  UNL1        0.1122
     18 N          60.0072   89.7307    7.8333 N.am    1  UNL1       -0.2870
     19 C          60.5354   88.5620    8.6111 C.2     1  UNL1        0.3041
     20 O          60.2077   87.1636    8.1786 O.2     1  UNL1       -0.2526
     21 N          61.3913   88.7917    9.8214 N.am    1  UNL1       -0.2614
     22 C          61.7190   90.1900   10.2539 C.3     1  UNL1        0.1123
     23 C          62.5749   90.4197   11.4641 C.3     1  UNL1        0.0942
     24 N          63.1031   89.2510   12.2419 N.3     1  UNL1       -0.2660
     25 C          62.7754   87.8526   11.8094 C.3     1  UNL1        0.0942
     26 C          61.9195   87.6229   10.5992 C.3     1  UNL1        0.1123
     27 H          60.2222   90.6486    8.1172 H       1  UNL1        0.1510
@<TRIPOS>BOND
     1    17    18    1
     2    18    19   am
     3    19    20    2
     4    19    21   am
     5    21    22    1
     6    22    23    1
     7    23    24    1
     8    24    16    1
     9    16     1    1
    10     1     2   ar
    11     2     3   ar
    12     3     4   ar
    13     4     5   ar
    14     5     7    1
    15     7     9    1
    16     9    10   ar
    17    10    11   ar
    18    11    12   ar
    19    12    14    1
    20    14    15    3
    21    12    13   ar
    22     5     6   ar
    23    24    25    1
    24    25    26    1
    25    26    21    1
    26     6     1   ar
    27    13     9   ar
    28    18    27    1
    29     7     8    1
@<TRIPOS>MOLECULE
*****
 27 29 0 0 0
SMALL
GASTEIGER

@<TRIPOS>ATOM
      1 C          64.1732   87.5248   15.1716 C.ar    1  UNL1       -0.0018
      2 C          63.5643   88.2474   16.3366 C.ar    1  UNL1        0.0179
      3 C          62.8877   89.5699   16.1284 C.ar    1  UNL1        0.1000
      4 N          62.8200   90.1698   14.7553 N.ar    1  UNL1       -0.2291
      5 C          63.4289   89.4472   13.5903 C.ar    1  UNL1        0.1333
      6 C          64.1055   88.1247   13.7985 C.ar    1  UNL1        0.0316
      7 N          63.3613   90.0472   12.2172 N.pl3   1  UNL1       -0.2781
      8 H          64.0472   90.6910   11.9270 H       1  UNL1        0.1555
      9 C          62.2486   89.6661   11.2863 C.ar    1  UNL1        0.1653
     10 N          61.0723   90.5223   10.9211 N.ar    1  UNL1       -0.2217
     11 C          60.2135   89.7473    9.9661 C.ar    1  UNL1        0.1177
     12 C          60.8591   88.4121    9.7412 C.ar    1  UNL1        0.1194
     13 S          62.1168   88.3619   10.5570 S.2     1  UNL1       -0.0409
     14 C          60.3384   87.3190    8.8558 C.1     1  UNL1        0.1086
     15 N          59.8176   86.2258    7.9703 N.1     1  UNL1       -0.1903
     16 C          64.8498   86.2024   15.3798 C.3     1  UNL1        0.0994
     17 C          62.4720   79.2590   11.3943 C.3     1  UNL1        0.1122
     18 N          63.0784   80.5089   11.9598 N.am    1  UNL1       -0.2870
     19 C          62.4241   81.2025   13.1177 C.2     1  UNL1        0.3041
     20 O          61.1635   80.6460   13.7101 O.2     1  UNL1       -0.2526
     21 N          63.0305   82.4525   13.6833 N.am    1  UNL1       -0.2614
     22 C          64.2912   83.0089   13.0908 C.3     1  UNL1        0.1123
     23 C          64.8976   84.2589   13.6564 C.3     1  UNL1        0.0942
     24 N          64.2434   84.9524   14.8143 N.3     1  UNL1       -0.2660
     25 C          62.9827   84.3960   15.4067 C.3     1  UNL1        0.0942
     26 C          62.3763   83.1460   14.8412 C.3     1  UNL1        0.1123
     27 H          63.9059   80.8741   11.5710 H       1  UNL1        0.1510
@<TRIPOS>BOND
     1    17    18    1
     2    18    19   am
     3    19    20    2
     4    19    21   am
     5    21    22    1
     6    22    23    1
     7    23    24    1
     8    24    16    1
     9    16     1    1
    10     1     2   ar
    11     2     3   ar
    12     3     4   ar
    13     4     5   ar
    14     5     7    1
    15     7     9    1
    16     9    10   ar
    17    10    11   ar
    18    11    12   ar
    19    12    14    1
    20    14    15    3
    21    12    13   ar
    22     5     6   ar
    23    24    25    1
    24    25    26    1
    25    26    21    1
    26     6     1   ar
    27    13     9   ar
    28    18    27    1
    29     7     8    1
@<TRIPOS>MOLECULE
*****
 27 29 0 0 0
SMALL
GASTEIGER

@<TRIPOS>ATOM
      1 C          63.8243   88.3729   14.7353 C.ar    1  UNL1       -0.0018
      2 C          63.2155   88.8165   16.0325 C.ar    1  UNL1        0.0179
      3 C          63.1262   87.8603   17.1847 C.ar    1  UNL1        0.1000
      4 N          63.6457   86.4606   17.0399 N.ar    1  UNL1       -0.2291
      5 C          64.2544   86.0171   15.7427 C.ar    1  UNL1        0.1333
      6 C          64.3438   86.9733   14.5904 C.ar    1  UNL1        0.0316
      7 N          64.7739   84.6174   15.5978 N.pl3   1  UNL1       -0.2781
      8 H          65.6338   84.3667   16.0065 H       1  UNL1        0.1555
      9 C          63.9833   83.5997   14.8303 C.ar    1  UNL1        0.1653
     10 N          64.3574   83.0112   13.5022 N.ar    1  UNL1       -0.2217
     11 C          63.2851   82.0395   13.1072 C.ar    1  UNL1        0.1177
     12 C          62.2483   82.0275   14.1912 C.ar    1  UNL1        0.1194
     13 S          62.6798   82.9917   15.2561 S.2     1  UNL1       -0.0409
     14 C          60.9992   81.1971   14.2074 C.1     1  UNL1        0.1086
     15 N          59.7502   80.3666   14.2236 N.1     1  UNL1       -0.1903
     16 C          63.9136   89.3291   13.5830 C.3     1  UNL1        0.0994
     17 C          59.1644   87.0037    7.1186 C.3     1  UNL1        0.1122
     18 N          60.0432   87.1922    8.3195 N.am    1  UNL1       -0.2870
     19 C          60.3982   88.5751    8.7795 C.2     1  UNL1        0.3041
     20 O          59.8743   89.7695    8.0386 O.2     1  UNL1       -0.2526
     21 N          61.2770   88.7636    9.9804 N.am    1  UNL1       -0.2614
     22 C          61.8009   87.5692   10.7213 C.3     1  UNL1        0.1123
     23 C          62.6798   87.7577   11.9221 C.3     1  UNL1        0.0942
     24 N          63.0347   89.1406   12.3821 N.3     1  UNL1       -0.2660
     25 C          62.5109   90.3350   11.6412 C.3     1  UNL1        0.0942
     26 C          61.6320   90.1465   10.4403 C.3     1  UNL1        0.1123
     27 H          60.3871   86.4083    8.8058 H       1  UNL1        0.1510
@<TRIPOS>BOND
     1    17    18    1
     2    18    19   am
     3    19    20    2
     4    19    21   am
     5    21    22    1
     6    22    23    1
     7    23    24    1
     8    24    16    1
     9    16     1    1
    10     1     2   ar
    11     2     3   ar
    12     3     4   ar
    13     4     5   ar
    14     5     7    1
    15     7     9    1
    16     9    10   ar
    17    10    11   ar
    18    11    12   ar
    19    12    14    1
    20    14    15    3
    21    12    13   ar
    22     5     6   ar
    23    24    25    1
    24    25    26    1
    25    26    21    1
    26     6     1   ar
    27    13     9   ar
    28    18    27    1
    29     7     8    1
@<TRIPOS>MOLECULE
*****
 27 29 0 0 0
SMALL
GASTEIGER

@<TRIPOS>ATOM
      1 C          62.7413   89.3614   10.9074 C.ar    1  UNL1       -0.0018
      2 C          63.0622   90.6735   10.2552 C.ar    1  UNL1        0.0179
      3 C          63.7849   91.7377   11.0267 C.ar    1  UNL1        0.1000
      4 N          64.1867   91.4898   12.4505 N.ar    1  UNL1       -0.2291
      5 C          63.8658   90.1777   13.1027 C.ar    1  UNL1        0.1333
      6 C          63.1431   89.1134   12.3312 C.ar    1  UNL1        0.0316
      7 N          64.2676   89.9298   14.5265 N.pl3   1  UNL1       -0.2781
      8 H          64.7330   90.6319   15.0360 H       1  UNL1        0.1555
      9 C          63.9605   88.6120   15.1738 C.ar    1  UNL1        0.1653
     10 N          63.2351   88.4152   16.4720 N.ar    1  UNL1       -0.2217
     11 C          63.1511   86.9412   16.7372 C.ar    1  UNL1        0.1177
     12 C          63.8245   86.2271   15.6029 C.ar    1  UNL1        0.1194
     13 S          64.3247   87.2597   14.6368 S.2     1  UNL1       -0.0409
     14 C          63.9719   84.7412   15.4600 C.1     1  UNL1        0.1086
     15 N          64.1192   83.2553   15.3170 N.1     1  UNL1       -0.1903
     16 C          62.0187   88.2972   10.1359 C.3     1  UNL1        0.0994
     17 C          62.9471   80.5258   13.0500 C.3     1  UNL1        0.1122
     18 N          62.7024   81.9731   12.7412 N.am    1  UNL1       -0.2870
     19 C          62.9976   82.5080   11.3713 C.2     1  UNL1        0.3041
     20 O          63.5377   81.5956   10.3103 O.2     1  UNL1       -0.2526
     21 N          62.7529   83.9553   11.0624 N.am    1  UNL1       -0.2614
     22 C          62.2129   84.8677   12.1235 C.3     1  UNL1        0.1123
     23 C          61.9681   86.3150   11.8146 C.3     1  UNL1        0.0942
     24 N          62.2634   86.8499   10.4447 N.3     1  UNL1       -0.2660
     25 C          62.8034   85.9375    9.3837 C.3     1  UNL1        0.0942
     26 C          63.0482   84.4902    9.6926 C.3     1  UNL1        0.1123
     27 H          62.3479   82.5719   13.4376 H       1  UNL1        0.1510
@<TRIPOS>BOND
     1    17    18    1
     2    18    19   am
     3    19    20    2
     4    19    21   am
     5    21    22    1
     6    22    23    1
     7    23    24    1
     8    24    16    1
     9    16     1    1
    10     1     2   ar
    11     2     3   ar
    12     3     4   ar
    13     4     5   ar
    14     5     7    1
    15     7     9    1
    16     9    10   ar
    17    10    11   ar
    18    11    12   ar
    19    12    14    1
    20    14    15    3
    21    12    13   ar
    22     5     6   ar
    23    24    25    1
    24    25    26    1
    25    26    21    1
    26     6     1   ar
    27    13     9   ar
    28    18    27    1
    29     7     8    1
@<TRIPOS>MOLECULE
*****
 27 29 0 0 0
SMALL
GASTEIGER

@<TRIPOS>ATOM
      1 C          61.1849   88.3649   10.6126 C.ar    1  UNL1       -0.0018
      2 C          60.1302   88.4270    9.5477 C.ar    1  UNL1        0.0179
      3 C          59.9787   87.2949    8.5754 C.ar    1  UNL1        0.1000
      4 N          60.8818   86.1008    8.6679 N.ar    1  UNL1       -0.2291
      5 C          61.9364   86.0388    9.7327 C.ar    1  UNL1        0.1333
      6 C          62.0880   87.1708   10.7051 C.ar    1  UNL1        0.0316
      7 N          62.8395   84.8447    9.8252 N.pl3   1  UNL1       -0.2781
      8 H          63.2109   84.4438    9.0063 H       1  UNL1        0.1555
      9 C          63.1767   84.2613   11.1653 C.ar    1  UNL1        0.1653
     10 N          64.1429   83.1431   11.4223 N.ar    1  UNL1       -0.2217
     11 C          64.1702   82.8845   12.8996 C.ar    1  UNL1        0.1177
     12 C          63.2208   83.8428   13.5556 C.ar    1  UNL1        0.1194
     13 S          62.6067   84.6937   12.4837 S.2     1  UNL1       -0.0409
     14 C          62.9355   83.9341   15.0254 C.1     1  UNL1        0.1086
     15 N          62.6502   84.0254   16.4952 N.1     1  UNL1       -0.1903
     16 C          61.3364   89.4970   11.5849 C.3     1  UNL1        0.0994
     17 C          67.4755   94.8352    9.6966 C.3     1  UNL1        0.1122
     18 N          66.3094   93.8987    9.8116 N.am    1  UNL1       -0.2870
     19 C          66.0008   93.2429   11.1249 C.2     1  UNL1        0.3041
     20 O          66.8583   93.5237   12.3231 O.2     1  UNL1       -0.2526
     21 N          64.8347   92.3065   11.2399 N.am    1  UNL1       -0.2614
     22 C          63.9772   92.0257   10.0416 C.3     1  UNL1        0.1123
     23 C          62.8111   91.0892   10.1567 C.3     1  UNL1        0.0942
     24 N          62.5025   90.4335   11.4699 N.3     1  UNL1       -0.2660
     25 C          63.3600   90.7142   12.6682 C.3     1  UNL1        0.0942
     26 C          64.5261   91.6507   12.5532 C.3     1  UNL1        0.1123
     27 H          65.7466   93.7144    9.0251 H       1  UNL1        0.1510
@<TRIPOS>BOND
     1    17    18    1
     2    18    19   am
     3    19    20    2
     4    19    21   am
     5    21    22    1
     6    22    23    1
     7    23    24    1
     8    24    16    1
     9    16     1    1
    10     1     2   ar
    11     2     3   ar
    12     3     4   ar
    13     4     5   ar
    14     5     7    1
    15     7     9    1
    16     9    10   ar
    17    10    11   ar
    18    11    12   ar
    19    12    14    1
    20    14    15    3
    21    12    13   ar
    22     5     6   ar
    23    24    25    1
    24    25    26    1
    25    26    21    1
    26     6     1   ar
    27    13     9   ar
    28    18    27    1
    29     7     8    1
@<TRIPOS>MOLECULE
*****
 27 29 0 0 0
SMALL
GASTEIGER

@<TRIPOS>ATOM
      1 C          62.4423   89.1857   10.5168 C.ar    1  UNL1       -0.0018
      2 C          62.9280   90.4259    9.8267 C.ar    1  UNL1        0.0179
      3 C          63.4484   91.5782   10.6337 C.ar    1  UNL1        0.1000
      4 N          63.4831   91.4905   12.1307 N.ar    1  UNL1       -0.2291
      5 C          62.9975   90.2504   12.8208 C.ar    1  UNL1        0.1333
      6 C          62.4771   89.0979   12.0138 C.ar    1  UNL1        0.0316
      7 N          63.0323   90.1626   14.3178 N.pl3   1  UNL1       -0.2781
      8 H          62.4336   89.5386   14.7883 H       1  UNL1        0.1555
      9 C          63.9792   91.0256   15.0979 C.ar    1  UNL1        0.1653
     10 N          63.6907   91.6851   16.4139 N.ar    1  UNL1       -0.2217
     11 C          64.9141   92.4477   16.8283 C.ar    1  UNL1        0.1177
     12 C          65.9588   92.2594   15.7684 C.ar    1  UNL1        0.1194
     13 S          65.3809   91.3805   14.6989 S.2     1  UNL1       -0.0409
     14 C          67.3389   92.8469   15.7765 C.1     1  UNL1        0.1086
     15 N          68.7191   93.4345   15.7846 N.1     1  UNL1       -0.1903
     16 C          61.9219   88.0333    9.7098 C.3     1  UNL1        0.0994
     17 C          63.1331   80.5481   13.2105 C.3     1  UNL1        0.1122
     18 N          62.8298   81.9557   12.7901 N.am    1  UNL1       -0.2870
     19 C          63.1350   82.4030   11.3913 C.2     1  UNL1        0.3041
     20 O          63.7435   81.4426   10.4128 O.2     1  UNL1       -0.2526
     21 N          62.8317   83.8106   10.9709 N.am    1  UNL1       -0.2614
     22 C          62.2232   84.7709   11.9494 C.3     1  UNL1        0.1123
     23 C          61.9199   86.1785   11.5290 C.3     1  UNL1        0.0942
     24 N          62.2252   86.6257   10.1302 N.3     1  UNL1       -0.2660
     25 C          62.8337   85.6654    9.1517 C.3     1  UNL1        0.0942
     26 C          63.1370   84.2578    9.5721 C.3     1  UNL1        0.1123
     27 H          62.4304   82.5860   13.4323 H       1  UNL1        0.1510
@<TRIPOS>BOND
     1    17    18    1
     2    18    19   am
     3    19    20    2
     4    19    21   am
     5    21    22    1
     6    22    23    1
     7    23    24    1
     8    24    16    1
     9    16     1    1
    10     1     2   ar
    11     2     3   ar
    12     3     4   ar
    13     4     5   ar
    14     5     7    1
    15     7     9    1
    16     9    10   ar
    17    10    11   ar
    18    11    12   ar
    19    12    14    1
    20    14    15    3
    21    12    13   ar
    22     5     6   ar
    23    24    25    1
    24    25    26    1
    25    26    21    1
    26     6     1   ar
    27    13     9   ar
    28    18    27    1
    29     7     8    1
