@<TRIPOS>MOLECULE
*****
 44 48 0 0 0
SMALL
GASTEIGER

@<TRIPOS>ATOM
      1 C          61.3464   84.5857    8.7727 C.3     1  UNL1        0.1305
      2 N          61.7070   85.7977    9.5796 N.ar    1  UNL1       -0.3242
      3 C          62.4241   85.7983   10.8972 C.ar    1  UNL1        0.0738
      4 C          62.5741   87.2228   11.3424 C.ar    1  UNL1       -0.0038
      5 C          61.9498   88.1026   10.3001 C.ar    1  UNL1        0.0133
      6 C          61.8001   89.5918   10.2023 C.ar    1  UNL1        0.0013
      7 C          61.1146   90.2003    9.0150 C.ar    1  UNL1        0.0046
      8 C          60.5787   89.3195    7.9255 C.ar    1  UNL1        0.0548
      9 C          60.7284   87.8302    8.0233 C.ar    1  UNL1        0.0217
     10 C          61.4140   87.2217    9.2106 C.ar    1  UNL1        0.0598
     11 C          62.9063   84.5872   11.6391 C.ar    1  UNL1        0.0968
     12 C          64.0034   83.7421   11.0628 C.ar    1  UNL1        0.0215
     13 C          64.4857   82.5309   11.8047 C.ar    1  UNL1        0.0146
     14 C          63.8709   82.1649   13.1231 C.ar    1  UNL1        0.0768
     15 CL         64.3531   80.9537   13.8650 Cl      1  UNL1       -0.0806
     16 C          62.7738   83.0099   13.6994 C.ar    1  UNL1        0.1102
     17 N          62.2915   84.2211   12.9574 N.ar    1  UNL1       -0.2415
     18 C          63.2328   87.6863   12.6079 C.3     1  UNL1        0.0238
     19 C          63.4772   89.1123   13.0035 C.3     1  UNL1        0.0044
     20 C          64.1582   89.1125   14.3400 C.3     1  UNL1        0.0003
     21 C          64.3346   87.6864   14.7704 C.3     1  UNL1        0.0003
     22 C          63.7627   86.8050   13.6999 C.3     1  UNL1        0.0044
     23 C          59.8931   89.9280    6.7382 C.2     1  UNL1        0.2461
     24 O          58.4932   89.5178    6.3888 O.2     1  UNL1       -0.2701
     25 N          60.6073   90.9467    5.9003 N.am    1  UNL1       -0.2964
     26 H          61.5261   91.2159    6.1296 H       1  UNL1        0.1501
     27 C          59.9217   91.5552    4.7130 C.3     1  UNL1        0.1262
     28 C          61.2385   91.6497    4.0010 C.3     1  UNL1        0.0290
     29 C          58.6049   91.4607    5.4250 C.3     1  UNL1        0.0290
     30 C          59.2361   92.1637    3.5257 C.2     1  UNL1        0.2419
     31 O          57.7396   92.2601    3.4919 O.2     1  UNL1       -0.2731
     32 N          60.0470   92.6758    2.3724 N.am    1  UNL1       -0.2826
     33 H          61.0292   92.6125    2.3946 H       1  UNL1        0.1549
     34 C          59.3613   93.2843    1.1851 C.ar    1  UNL1        0.0503
     35 C          58.5814   92.4160    0.2429 C.ar    1  UNL1        0.0147
     36 C          57.8958   93.0245   -0.9444 C.ar    1  UNL1        0.0013
     37 C          57.9900   94.5013   -1.1894 C.ar    1  UNL1        0.0001
     38 C          58.7699   95.3696   -0.2473 C.ar    1  UNL1        0.0013
     39 C          59.4556   94.7612    0.9401 C.ar    1  UNL1        0.0147
     40 C          57.3044   95.1098   -2.3767 C.2     1  UNL1        0.0012
     41 C          55.9167   94.6758   -2.7453 C.2     1  UNL1        0.0151
     42 C          55.2311   95.2844   -3.9326 C.2     1  UNL1        0.0729
     43 O          54.5116   96.5932   -3.7939 O.co2   1  UNL1       -0.5446
     44 O          55.2649   94.5840   -5.2586 O.co2   1  UNL1       -0.5446
@<TRIPOS>UNITY_ATOM_ATTR
43 1
charge -1
@<TRIPOS>BOND
     1     1     2    1
     2     2     3   ar
     3     3    11    1
     4    11    12   ar
     5    12    13   ar
     6    13    14   ar
     7    14    15    1
     8    14    16   ar
     9    16    17   ar
    10     3     4   ar
    11     4    18    1
    12    18    19    1
    13    19    20    1
    14    20    21    1
    15    21    22    1
    16     4     5   ar
    17     5     6   ar
    18     6     7   ar
    19     7     8   ar
    20     8    23    1
    21    23    24    2
    22    23    25   am
    23    25    27    1
    24    27    28    1
    25    27    29    1
    26    27    30    1
    27    30    31    2
    28    30    32   am
    29    32    34    1
    30    34    35   ar
    31    35    36   ar
    32    36    37   ar
    33    37    40    1
    34    40    41    2
    35    41    42    1
    36    42    43   ar
    37    42    44   ar
    38    37    38   ar
    39    38    39   ar
    40     8     9   ar
    41     9    10   ar
    42    10     2   ar
    43    17    11   ar
    44    22    18    1
    45    10     5   ar
    46    39    34   ar
    47    25    26    1
    48    32    33    1
@<TRIPOS>MOLECULE
*****
 44 48 0 0 0
SMALL
GASTEIGER

@<TRIPOS>ATOM
      1 C          61.6854   89.1118   12.1752 C.3     1  UNL1        0.1305
      2 N          61.8027   87.8293   11.4060 N.ar    1  UNL1       -0.3242
      3 C          62.3510   86.5347   11.9287 C.ar    1  UNL1        0.0738
      4 C          62.2794   85.5216   10.8248 C.ar    1  UNL1       -0.0038
      5 C          61.6868   86.1902    9.6199 C.ar    1  UNL1        0.0133
      6 C          61.3774   85.6845    8.2420 C.ar    1  UNL1        0.0013
      7 C          60.7735   86.6051    7.2233 C.ar    1  UNL1        0.0046
      8 C          60.4789   88.0313    7.5825 C.ar    1  UNL1        0.0548
      9 C          60.7882   88.5370    8.9604 C.ar    1  UNL1        0.0217
     10 C          61.3922   87.6164    9.9791 C.ar    1  UNL1        0.0598
     11 C          62.8783   86.2951   13.3124 C.ar    1  UNL1        0.0968
     12 C          63.9129   87.2146   13.8904 C.ar    1  UNL1        0.0215
     13 C          64.4402   86.9751   15.2740 C.ar    1  UNL1        0.0146
     14 C          63.9330   85.8160   16.0798 C.ar    1  UNL1        0.0768
     15 CL         64.4603   85.5765   17.4634 Cl      1  UNL1       -0.0806
     16 C          62.8984   84.8965   15.5018 C.ar    1  UNL1        0.1102
     17 N          62.3710   85.1361   14.1181 N.ar    1  UNL1       -0.2415
     18 C          62.7225   84.0912   10.9108 C.3     1  UNL1        0.0238
     19 C          62.2473   83.0795   11.9110 C.3     1  UNL1        0.0044
     20 C          62.9497   81.7843   11.6300 C.3     1  UNL1        0.0003
     21 C          63.8591   81.9955   10.4559 C.3     1  UNL1        0.0003
     22 C          63.7187   83.4213   10.0114 C.3     1  UNL1        0.0044
     23 C          59.8749   88.9519    6.5638 C.2     1  UNL1        0.2461
     24 O          58.4602   88.7440    6.1104 O.2     1  UNL1       -0.2701
     25 N          60.6855   90.0803    5.9985 N.am    1  UNL1       -0.2964
     26 H          61.6140   90.2167    6.2961 H       1  UNL1        0.1501
     27 C          60.0815   91.0009    4.9798 C.3     1  UNL1        0.1262
     28 C          61.4099   91.1113    4.2919 C.3     1  UNL1        0.0290
     29 C          58.7531   90.8905    5.6676 C.3     1  UNL1        0.0290
     30 C          59.4775   91.9214    3.9611 C.2     1  UNL1        0.2419
     31 O          58.0772   92.4271    4.1441 O.2     1  UNL1       -0.2731
     32 N          60.2737   92.3362    2.7594 N.am    1  UNL1       -0.2826
     33 H          61.1927   92.0043    2.6394 H       1  UNL1        0.1549
     34 C          59.6697   93.2568    1.7408 C.ar    1  UNL1        0.0503
     35 C          58.7097   92.7201    0.7207 C.ar    1  UNL1        0.0147
     36 C          58.1057   93.6407   -0.2980 C.ar    1  UNL1        0.0013
     37 C          58.4616   95.0978   -0.2967 C.ar    1  UNL1        0.0001
     38 C          59.4215   95.6345    0.7234 C.ar    1  UNL1        0.0013
     39 C          60.0256   94.7139    1.7421 C.ar    1  UNL1        0.0147
     40 C          57.8576   96.0184   -1.3153 C.2     1  UNL1        0.0012
     41 C          56.9355   95.4734   -2.3654 C.2     1  UNL1        0.0151
     42 C          56.3314   96.3940   -3.3841 C.2     1  UNL1        0.0729
     43 O          54.9121   96.8543   -3.2309 O.co2   1  UNL1       -0.5446
     44 O          57.1468   96.8543   -4.5560 O.co2   1  UNL1       -0.5446
@<TRIPOS>UNITY_ATOM_ATTR
43 1
charge -1
@<TRIPOS>BOND
     1     1     2    1
     2     2     3   ar
     3     3    11    1
     4    11    12   ar
     5    12    13   ar
     6    13    14   ar
     7    14    15    1
     8    14    16   ar
     9    16    17   ar
    10     3     4   ar
    11     4    18    1
    12    18    19    1
    13    19    20    1
    14    20    21    1
    15    21    22    1
    16     4     5   ar
    17     5     6   ar
    18     6     7   ar
    19     7     8   ar
    20     8    23    1
    21    23    24    2
    22    23    25   am
    23    25    27    1
    24    27    28    1
    25    27    29    1
    26    27    30    1
    27    30    31    2
    28    30    32   am
    29    32    34    1
    30    34    35   ar
    31    35    36   ar
    32    36    37   ar
    33    37    40    1
    34    40    41    2
    35    41    42    1
    36    42    43   ar
    37    42    44   ar
    38    37    38   ar
    39    38    39   ar
    40     8     9   ar
    41     9    10   ar
    42    10     2   ar
    43    17    11   ar
    44    22    18    1
    45    10     5   ar
    46    39    34   ar
    47    25    26    1
    48    32    33    1
@<TRIPOS>MOLECULE
*****
 44 48 0 0 0
SMALL
GASTEIGER

@<TRIPOS>ATOM
      1 C          63.4239   93.1118    0.5503 C.3     1  UNL1        0.1305
      2 N          61.9452   93.3215    0.6890 N.ar    1  UNL1       -0.3242
      3 C          61.0707   94.0884   -0.2581 C.ar    1  UNL1        0.0738
      4 C          59.6663   94.0419    0.2668 C.ar    1  UNL1       -0.0038
      5 C          59.6728   93.2462    1.5384 C.ar    1  UNL1        0.0133
      6 C          58.5783   92.8697    2.4924 C.ar    1  UNL1        0.0013
      7 C          58.8922   92.0479    3.7073 C.ar    1  UNL1        0.0046
      8 C          60.3006   91.6026    3.9683 C.ar    1  UNL1        0.0548
      9 C          61.3951   91.9792    3.0143 C.ar    1  UNL1        0.0217
     10 C          61.0813   92.8010    1.7994 C.ar    1  UNL1        0.0598
     11 C          61.5214   94.7803   -1.5104 C.ar    1  UNL1        0.0968
     12 C          61.2621   94.1537   -2.8483 C.ar    1  UNL1        0.0215
     13 C          61.7129   94.8456   -4.1005 C.ar    1  UNL1        0.0146
     14 C          62.4229   96.1641   -4.0148 C.ar    1  UNL1        0.0768
     15 CL         62.8736   96.8560   -5.2671 Cl      1  UNL1       -0.0806
     16 C          62.6822   96.7907   -2.6769 C.ar    1  UNL1        0.1102
     17 N          62.2314   96.0988   -1.4247 N.ar    1  UNL1       -0.2415
     18 C          58.4661   94.6791   -0.3683 C.3     1  UNL1        0.0238
     19 C          58.2491   96.1502   -0.5646 C.3     1  UNL1        0.0044
     20 C          56.9210   96.3375   -1.2362 C.3     1  UNL1        0.0003
     21 C          56.3172   94.9819   -1.4551 C.3     1  UNL1        0.0003
     22 C          57.2721   93.9570   -0.9186 C.3     1  UNL1        0.0044
     23 C          60.6144   90.7808    5.1832 C.2     1  UNL1        0.2461
     24 O          62.0259   90.6889    5.6824 O.2     1  UNL1       -0.2701
     25 N          59.5168   90.0508    5.8990 N.am    1  UNL1       -0.2964
     26 H          58.5904   90.1111    5.5713 H       1  UNL1        0.1501
     27 C          59.8306   89.2290    7.1140 C.3     1  UNL1        0.1262
     28 C          60.1317   90.4810    7.8832 C.3     1  UNL1        0.0290
     29 C          59.5296   87.9769    6.3448 C.3     1  UNL1        0.0290
     30 C          60.1445   88.4071    8.3289 C.2     1  UNL1        0.2419
     31 O          59.0545   88.0523    9.2963 O.2     1  UNL1       -0.2731
     32 N          61.5483   87.9401    8.5763 N.am    1  UNL1       -0.2826
     33 H          62.2636   88.1730    7.9413 H       1  UNL1        0.1549
     34 C          61.8621   87.1182    9.7912 C.ar    1  UNL1        0.0503
     35 C          61.6941   85.6281    9.7526 C.ar    1  UNL1        0.0147
     36 C          62.0079   84.8063   10.9675 C.ar    1  UNL1        0.0013
     37 C          62.4897   85.4744   12.2211 C.ar    1  UNL1        0.0001
     38 C          62.6577   86.9645   12.2597 C.ar    1  UNL1        0.0013
     39 C          62.3439   87.7864   11.0448 C.ar    1  UNL1        0.0147
     40 C          62.8035   84.6526   13.4360 C.2     1  UNL1        0.0012
     41 C          63.0337   83.1763   13.3038 C.2     1  UNL1        0.0151
     42 C          63.3476   82.3544   14.5188 C.2     1  UNL1        0.0729
     43 O          62.9620   80.9056   14.5643 O.co2   1  UNL1       -0.5446
     44 O          64.0470   82.9815   15.6883 O.co2   1  UNL1       -0.5446
@<TRIPOS>UNITY_ATOM_ATTR
43 1
charge -1
@<TRIPOS>BOND
     1     1     2    1
     2     2     3   ar
     3     3    11    1
     4    11    12   ar
     5    12    13   ar
     6    13    14   ar
     7    14    15    1
     8    14    16   ar
     9    16    17   ar
    10     3     4   ar
    11     4    18    1
    12    18    19    1
    13    19    20    1
    14    20    21    1
    15    21    22    1
    16     4     5   ar
    17     5     6   ar
    18     6     7   ar
    19     7     8   ar
    20     8    23    1
    21    23    24    2
    22    23    25   am
    23    25    27    1
    24    27    28    1
    25    27    29    1
    26    27    30    1
    27    30    31    2
    28    30    32   am
    29    32    34    1
    30    34    35   ar
    31    35    36   ar
    32    36    37   ar
    33    37    40    1
    34    40    41    2
    35    41    42    1
    36    42    43   ar
    37    42    44   ar
    38    37    38   ar
    39    38    39   ar
    40     8     9   ar
    41     9    10   ar
    42    10     2   ar
    43    17    11   ar
    44    22    18    1
    45    10     5   ar
    46    39    34   ar
    47    25    26    1
    48    32    33    1
@<TRIPOS>MOLECULE
*****
 44 48 0 0 0
SMALL
GASTEIGER

@<TRIPOS>ATOM
      1 C          63.8392   93.7119   -1.3721 C.3     1  UNL1        0.1305
      2 N          62.3651   93.9895   -1.3747 N.ar    1  UNL1       -0.3242
      3 C          61.6011   94.6868   -2.4610 C.ar    1  UNL1        0.0738
      4 C          60.1601   94.7467   -2.0490 C.ar    1  UNL1       -0.0038
      5 C          60.0334   94.0865   -0.7081 C.ar    1  UNL1        0.0133
      6 C          58.8532   93.8510    0.1872 C.ar    1  UNL1        0.0013
      7 C          59.0358   93.1474    1.4993 C.ar    1  UNL1        0.0046
      8 C          60.3986   92.6794    1.9161 C.ar    1  UNL1        0.0548
      9 C          61.5788   92.9149    1.0208 C.ar    1  UNL1        0.0217
     10 C          61.3962   93.6184   -0.2913 C.ar    1  UNL1        0.0598
     11 C          62.1771   95.2290   -3.7355 C.ar    1  UNL1        0.0968
     12 C          61.5993   94.8138   -5.0559 C.ar    1  UNL1        0.0215
     13 C          62.1752   95.3560   -6.3304 C.ar    1  UNL1        0.0146
     14 C          63.3290   96.3133   -6.2844 C.ar    1  UNL1        0.0768
     15 CL         63.9050   96.8555   -7.5589 Cl      1  UNL1       -0.0806
     16 C          63.9068   96.7285   -4.9640 C.ar    1  UNL1        0.1102
     17 N          63.3309   96.1863   -3.6895 N.ar    1  UNL1       -0.2415
     18 C          59.0419   95.3594   -2.8392 C.3     1  UNL1        0.0238
     19 C          57.6449   94.8249   -2.9505 C.3     1  UNL1        0.0044
     20 C          56.8640   95.7493   -3.8369 C.3     1  UNL1        0.0003
     21 C          57.7786   96.8552   -4.2735 C.3     1  UNL1        0.0003
     22 C          59.1246   96.6142   -3.6569 C.3     1  UNL1        0.0044
     23 C          60.5812   91.9758    3.2282 C.2     1  UNL1        0.2461
     24 O          61.9585   91.7812    3.7896 O.2     1  UNL1       -0.2701
     25 N          59.3865   91.4669    3.9790 N.am    1  UNL1       -0.2964
     26 H          58.4825   91.5946    3.6105 H       1  UNL1        0.1501
     27 C          59.5691   90.7633    5.2911 C.3     1  UNL1        0.1262
     28 C          61.0422   90.6572    5.0293 C.3     1  UNL1        0.0290
     29 C          58.0960   90.8694    5.5529 C.3     1  UNL1        0.0290
     30 C          59.7516   90.0597    6.6032 C.2     1  UNL1        0.2419
     31 O          59.1170   90.6122    7.8450 O.2     1  UNL1       -0.2731
     32 N          60.5687   88.8038    6.6736 N.am    1  UNL1       -0.2826
     33 H          60.9852   88.4412    5.8585 H       1  UNL1        0.1549
     34 C          60.7512   88.1002    7.9857 C.ar    1  UNL1        0.0503
     35 C          61.0410   88.8912    9.2269 C.ar    1  UNL1        0.0147
     36 C          61.2235   88.1876   10.5390 C.ar    1  UNL1        0.0013
     37 C          61.1162   86.6932   10.6100 C.ar    1  UNL1        0.0001
     38 C          60.8264   85.9022    9.3689 C.ar    1  UNL1        0.0013
     39 C          60.6439   86.6058    8.0567 C.ar    1  UNL1        0.0147
     40 C          61.2988   85.9896   11.9221 C.2     1  UNL1        0.0012
     41 C          62.4958   85.1131   12.1430 C.2     1  UNL1        0.0151
     42 C          62.6783   84.4096   13.4552 C.2     1  UNL1        0.0729
     43 O          63.1682   85.1696   14.6519 O.co2   1  UNL1       -0.5446
     44 O          62.3708   82.9460   13.5706 O.co2   1  UNL1       -0.5446
@<TRIPOS>UNITY_ATOM_ATTR
43 1
charge -1
@<TRIPOS>BOND
     1     1     2    1
     2     2     3   ar
     3     3    11    1
     4    11    12   ar
     5    12    13   ar
     6    13    14   ar
     7    14    15    1
     8    14    16   ar
     9    16    17   ar
    10     3     4   ar
    11     4    18    1
    12    18    19    1
    13    19    20    1
    14    20    21    1
    15    21    22    1
    16     4     5   ar
    17     5     6   ar
    18     6     7   ar
    19     7     8   ar
    20     8    23    1
    21    23    24    2
    22    23    25   am
    23    25    27    1
    24    27    28    1
    25    27    29    1
    26    27    30    1
    27    30    31    2
    28    30    32   am
    29    32    34    1
    30    34    35   ar
    31    35    36   ar
    32    36    37   ar
    33    37    40    1
    34    40    41    2
    35    41    42    1
    36    42    43   ar
    37    42    44   ar
    38    37    38   ar
    39    38    39   ar
    40     8     9   ar
    41     9    10   ar
    42    10     2   ar
    43    17    11   ar
    44    22    18    1
    45    10     5   ar
    46    39    34   ar
    47    25    26    1
    48    32    33    1
