@<TRIPOS>MOLECULE
*****
 26 29 0 0 0
SMALL
GASTEIGER

@<TRIPOS>ATOM
      1 C          63.9153   85.5866   13.6606 C.2     1  UNL1        0.1203
      2 C          64.0622   84.2838   12.9318 C.2     1  UNL1        0.0299
      3 C          63.4348   84.1052   11.5811 C.2     1  UNL1       -0.0018
      4 C          63.5816   82.8024   10.8522 C.3     1  UNL1        0.0327
      5 C          62.6604   85.2294   10.9592 C.ar    1  UNL1        0.0754
      6 N          62.0330   85.0507    9.6084 N.ar    1  UNL1       -0.2257
      7 C          61.2587   86.1748    8.9866 C.ar    1  UNL1        0.1846
      8 N          60.5344   86.2914    7.6782 N.2     1  UNL1       -0.1288
      9 N          59.9399   87.6662    7.5985 N.2     1  UNL1       -0.1508
     10 C          60.2967   88.3994    8.8575 C.2     1  UNL1        0.0837
     11 C          59.9069   89.8071    9.1987 C.3     1  UNL1        0.0541
     12 C          61.1118   87.4776    9.7154 C.ar    1  UNL1        0.0512
     13 C          61.7392   87.6562   11.0661 C.ar    1  UNL1        0.0105
     14 C          62.5135   86.5321   11.6880 C.ar    1  UNL1        0.0015
     15 C          63.1410   86.7108   13.0387 C.3     1  UNL1        0.0914
     16 C          61.5924   88.9590   11.7950 C.3     1  UNL1        0.1550
     17 O          60.3440   89.2449   12.5760 O.3     1  UNL1       -0.3756
     18 H          59.7388   88.4900   12.5061 H       1  UNL1        0.2112
     19 C          62.6939   89.9759   11.7429 C.ar    1  UNL1        0.0115
     20 C          62.9894   90.6964   10.4609 C.ar    1  UNL1        0.0191
     21 C          64.0909   91.7133   10.4089 C.ar    1  UNL1        0.0986
     22 N          64.8968   92.0096   11.6387 N.ar    1  UNL1       -0.2423
     23 C          64.6012   91.2890   12.9207 C.ar    1  UNL1        0.0986
     24 C          63.4998   90.2722   12.9728 C.ar    1  UNL1        0.0191
     25 C          63.6819   85.8026   16.2392 C.3     1  UNL1        0.2520
     26 O          64.5427   85.7652   15.0113 O.2     1  UNL1       -0.4754
@<TRIPOS>BOND
     1    25    26    1
     2    26     1    1
     3     1     2    2
     4     2     3    1
     5     3     4    1
     6     3     5    2
     7     5     6   ar
     8     6     7   ar
     9     7     8    1
    10     8     9    2
    11     9    10    1
    12    10    11    1
    13    10    12    2
    14    12    13   ar
    15    13    16    1
    16    16    17    1
    17    16    19    1
    18    19    20   ar
    19    20    21   ar
    20    21    22   ar
    21    22    23   ar
    22    23    24   ar
    23    13    14   ar
    24    14    15    1
    25    15     1    1
    26    14     5   ar
    27    12     7   ar
    28    24    19   ar
    29    17    18    1
@<TRIPOS>MOLECULE
*****
 26 29 0 0 0
SMALL
GASTEIGER

@<TRIPOS>ATOM
      1 C          64.0911   87.5233   14.3716 C.2     1  UNL1        0.1203
      2 C          63.6332   87.3090   15.7839 C.2     1  UNL1        0.0299
      3 C          63.0835   85.9769   16.2000 C.2     1  UNL1       -0.0018
      4 C          62.6256   85.7624   17.6122 C.3     1  UNL1        0.0327
      5 C          62.9917   84.8590   15.2039 C.ar    1  UNL1        0.0754
      6 N          62.4420   83.5268   15.6201 N.ar    1  UNL1       -0.2257
      7 C          62.3502   82.4091   14.6240 C.ar    1  UNL1        0.1846
      8 N          61.8564   80.9976   14.7420 N.2     1  UNL1       -0.1288
      9 N          62.0092   80.3397   13.4027 N.2     1  UNL1       -0.1508
     10 C          62.5973   81.3445   12.4570 C.2     1  UNL1        0.0837
     11 C          62.9183   81.1113   11.0104 C.3     1  UNL1        0.0541
     12 C          62.8081   82.6235   13.2118 C.ar    1  UNL1        0.0512
     13 C          63.3578   83.9556   12.7956 C.ar    1  UNL1        0.0105
     14 C          63.4496   85.0734   13.7917 C.ar    1  UNL1        0.0015
     15 C          63.9993   86.4056   13.3755 C.3     1  UNL1        0.0914
     16 C          63.8157   84.1701   11.3834 C.3     1  UNL1        0.1550
     17 O          65.1660   83.6809   10.9503 O.3     1  UNL1       -0.3756
     18 H          65.6100   83.2523   11.6987 H       1  UNL1        0.2112
     19 C          62.9233   84.8736   10.4043 C.ar    1  UNL1        0.0115
     20 C          63.2092   84.7892    8.9342 C.ar    1  UNL1        0.0191
     21 C          62.3167   85.4928    7.9551 C.ar    1  UNL1        0.0986
     22 N          61.1386   86.2807    8.4460 N.ar    1  UNL1       -0.2423
     23 C          60.8528   86.3651    9.9162 C.ar    1  UNL1        0.0986
     24 C          61.7452   85.6616   10.8953 C.ar    1  UNL1        0.0191
     25 C          63.7110   89.9424   13.5034 C.3     1  UNL1        0.2520
     26 O          64.6408   88.8555   13.9554 O.2     1  UNL1       -0.4754
@<TRIPOS>BOND
     1    25    26    1
     2    26     1    1
     3     1     2    2
     4     2     3    1
     5     3     4    1
     6     3     5    2
     7     5     6   ar
     8     6     7   ar
     9     7     8    1
    10     8     9    2
    11     9    10    1
    12    10    11    1
    13    10    12    2
    14    12    13   ar
    15    13    16    1
    16    16    17    1
    17    16    19    1
    18    19    20   ar
    19    20    21   ar
    20    21    22   ar
    21    22    23   ar
    22    23    24   ar
    23    13    14   ar
    24    14    15    1
    25    15     1    1
    26    14     5   ar
    27    12     7   ar
    28    24    19   ar
    29    17    18    1
@<TRIPOS>MOLECULE
*****
 26 29 0 0 0
SMALL
GASTEIGER

@<TRIPOS>ATOM
      1 C          62.6835   83.5693   12.6642 C.2     1  UNL1        0.1203
      2 C          63.6885   83.8775   13.7344 C.2     1  UNL1        0.0299
      3 C          64.1147   85.2950   13.9771 C.2     1  UNL1       -0.0018
      4 C          65.1196   85.6032   15.0473 C.3     1  UNL1        0.0327
      5 C          63.5360   86.4044   13.1497 C.ar    1  UNL1        0.0754
      6 N          63.9622   87.8219   13.3926 N.ar    1  UNL1       -0.2257
      7 C          63.3836   88.9312   12.5652 C.ar    1  UNL1        0.1846
      8 N          63.6104   90.4139   12.5749 N.2     1  UNL1       -0.1288
      9 N          62.7457   91.0221   11.5108 N.2     1  UNL1       -0.1508
     10 C          61.9844   89.9152   10.8434 C.2     1  UNL1        0.0837
     11 C          61.0015   90.0730    9.7213 C.3     1  UNL1        0.0541
     12 C          62.3786   88.6230   11.4951 C.ar    1  UNL1        0.0512
     13 C          61.9524   87.2055   11.2523 C.ar    1  UNL1        0.0105
     14 C          62.5311   86.0962   12.0797 C.ar    1  UNL1        0.0015
     15 C          62.1048   84.6786   11.8369 C.3     1  UNL1        0.0914
     16 C          60.9475   86.8973   10.1822 C.3     1  UNL1        0.1550
     17 O          59.5205   87.3298   10.3463 O.3     1  UNL1       -0.3756
     18 H          59.4182   87.7923   11.1928 H       1  UNL1        0.2112
     19 C          61.3695   86.1565    8.9480 C.ar    1  UNL1        0.0115
     20 C          62.7894   85.6970    8.7977 C.ar    1  UNL1        0.0191
     21 C          63.2113   84.9563    7.5635 C.ar    1  UNL1        0.0986
     22 N          62.2134   84.6751    6.4796 N.ar    1  UNL1       -0.2423
     23 C          60.7934   85.1346    6.6299 C.ar    1  UNL1        0.0986
     24 C          60.3714   85.8753    7.8641 C.ar    1  UNL1        0.0191
     25 C          61.9245   81.2597   13.5806 C.3     1  UNL1        0.2520
     26 O          62.2573   82.1518   12.4215 O.2     1  UNL1       -0.4754
@<TRIPOS>BOND
     1    25    26    1
     2    26     1    1
     3     1     2    2
     4     2     3    1
     5     3     4    1
     6     3     5    2
     7     5     6   ar
     8     6     7   ar
     9     7     8    1
    10     8     9    2
    11     9    10    1
    12    10    11    1
    13    10    12    2
    14    12    13   ar
    15    13    16    1
    16    16    17    1
    17    16    19    1
    18    19    20   ar
    19    20    21   ar
    20    21    22   ar
    21    22    23   ar
    22    23    24   ar
    23    13    14   ar
    24    14    15    1
    25    15     1    1
    26    14     5   ar
    27    12     7   ar
    28    24    19   ar
    29    17    18    1
@<TRIPOS>MOLECULE
*****
 26 29 0 0 0
SMALL
GASTEIGER

@<TRIPOS>ATOM
      1 C          61.0744   85.9130    8.3976 C.2     1  UNL1        0.1203
      2 C          60.6935   87.3456    8.6271 C.2     1  UNL1        0.0299
      3 C          61.1577   88.0562    9.8638 C.2     1  UNL1       -0.0018
      4 C          60.7769   89.4887   10.0934 C.3     1  UNL1        0.0327
      5 C          62.0029   87.3341   10.8711 C.ar    1  UNL1        0.0754
      6 N          62.4672   88.0448   12.1079 N.ar    1  UNL1       -0.2257
      7 C          63.3123   87.3228   13.1151 C.ar    1  UNL1        0.1846
      8 N          63.9136   87.7593   14.4181 N.2     1  UNL1       -0.1288
      9 N          64.6661   86.5964   14.9939 N.2     1  UNL1       -0.1508
     10 C          64.5299   85.4413   14.0467 C.2     1  UNL1        0.0837
     11 C          65.1258   84.0768   14.2288 C.3     1  UNL1        0.0541
     12 C          63.6932   85.8902   12.8855 C.ar    1  UNL1        0.0512
     13 C          63.2289   85.1797   11.6488 C.ar    1  UNL1        0.0105
     14 C          62.3838   85.9017   10.6416 C.ar    1  UNL1        0.0015
     15 C          61.9195   85.1910    9.4048 C.3     1  UNL1        0.0914
     16 C          63.6098   83.7471   11.4192 C.3     1  UNL1        0.1550
     17 O          64.6439   83.4018   10.3889 O.3     1  UNL1       -0.3756
     18 H          64.9627   84.2143    9.9658 H       1  UNL1        0.2112
     19 C          62.9566   82.6598   12.2199 C.ar    1  UNL1        0.0115
     20 C          62.1797   83.0025   13.4564 C.ar    1  UNL1        0.0191
     21 C          61.5265   81.9151   14.2571 C.ar    1  UNL1        0.0986
     22 N          61.6502   80.4853   13.8213 N.ar    1  UNL1       -0.2423
     23 C          62.4272   80.1426   12.5848 C.ar    1  UNL1        0.0986
     24 C          63.0804   81.2298   11.7841 C.ar    1  UNL1        0.0191
     25 C          61.6035   84.5068    6.2780 C.3     1  UNL1        0.2520
     26 O          60.6101   85.2024    7.1609 O.2     1  UNL1       -0.4754
@<TRIPOS>BOND
     1    25    26    1
     2    26     1    1
     3     1     2    2
     4     2     3    1
     5     3     4    1
     6     3     5    2
     7     5     6   ar
     8     6     7   ar
     9     7     8    1
    10     8     9    2
    11     9    10    1
    12    10    11    1
    13    10    12    2
    14    12    13   ar
    15    13    16    1
    16    16    17    1
    17    16    19    1
    18    19    20   ar
    19    20    21   ar
    20    21    22   ar
    21    22    23   ar
    22    23    24   ar
    23    13    14   ar
    24    14    15    1
    25    15     1    1
    26    14     5   ar
    27    12     7   ar
    28    24    19   ar
    29    17    18    1
@<TRIPOS>MOLECULE
*****
 26 29 0 0 0
SMALL
GASTEIGER

@<TRIPOS>ATOM
      1 C          60.7294   86.7764    9.3604 C.2     1  UNL1        0.1203
      2 C          60.9927   88.2281    9.0895 C.2     1  UNL1        0.0299
      3 C          61.8476   89.0236   10.0310 C.2     1  UNL1       -0.0018
      4 C          62.1110   90.4752    9.7603 C.3     1  UNL1        0.0327
      5 C          62.4390   88.3674   11.2434 C.ar    1  UNL1        0.0754
      6 N          63.2939   89.1629   12.1849 N.ar    1  UNL1       -0.2257
      7 C          63.8853   88.5068   13.3972 C.ar    1  UNL1        0.1846
      8 N          64.7609   89.0319   14.4961 N.2     1  UNL1       -0.1288
      9 N          65.0386   87.9048   15.4461 N.2     1  UNL1       -0.1508
     10 C          64.3347   86.6830   14.9343 C.2     1  UNL1        0.0837
     11 C          64.3422   85.3273   15.5761 C.3     1  UNL1        0.0541
     12 C          63.6219   87.0551   13.6679 C.ar    1  UNL1        0.0512
     13 C          62.7671   86.2596   12.7264 C.ar    1  UNL1        0.0105
     14 C          62.1757   86.9158   11.5142 C.ar    1  UNL1        0.0015
     15 C          61.3208   86.1202   10.5726 C.3     1  UNL1        0.0914
     16 C          62.5037   84.8080   12.9972 C.3     1  UNL1        0.1550
     17 O          61.7132   84.4018   14.2056 O.3     1  UNL1       -0.3756
     18 H          61.4500   85.1933   14.7008 H       1  UNL1        0.2112
     19 C          63.0308   83.7625   12.0596 C.ar    1  UNL1        0.0115
     20 C          64.0236   84.1376   10.9996 C.ar    1  UNL1        0.0191
     21 C          64.5506   83.0920   10.0620 C.ar    1  UNL1        0.0986
     22 N          64.0849   81.6714   10.1844 N.ar    1  UNL1       -0.2423
     23 C          63.0920   81.2963   11.2445 C.ar    1  UNL1        0.0986
     24 C          62.5650   82.3418   12.1821 C.ar    1  UNL1        0.0191
     25 C          58.9161   86.6817    7.5021 C.3     1  UNL1        0.2520
     26 O          59.8745   85.9809    8.4189 O.2     1  UNL1       -0.4754
@<TRIPOS>BOND
     1    25    26    1
     2    26     1    1
     3     1     2    2
     4     2     3    1
     5     3     4    1
     6     3     5    2
     7     5     6   ar
     8     6     7   ar
     9     7     8    1
    10     8     9    2
    11     9    10    1
    12    10    11    1
    13    10    12    2
    14    12    13   ar
    15    13    16    1
    16    16    17    1
    17    16    19    1
    18    19    20   ar
    19    20    21   ar
    20    21    22   ar
    21    22    23   ar
    22    23    24   ar
    23    13    14   ar
    24    14    15    1
    25    15     1    1
    26    14     5   ar
    27    12     7   ar
    28    24    19   ar
    29    17    18    1
@<TRIPOS>MOLECULE
*****
 26 29 0 0 0
SMALL
GASTEIGER

@<TRIPOS>ATOM
      1 C          63.1756   89.8834   11.5542 C.2     1  UNL1        0.1203
      2 C          63.5889   90.2719   12.9429 C.2     1  UNL1        0.0299
      3 C          63.8027   89.2146   13.9851 C.2     1  UNL1       -0.0018
      4 C          64.2159   89.6030   15.3738 C.3     1  UNL1        0.0327
      5 C          63.6033   87.7687   13.6387 C.ar    1  UNL1        0.0754
      6 N          63.8171   86.7114   14.6811 N.ar    1  UNL1       -0.2257
      7 C          63.6177   85.2656   14.3347 C.ar    1  UNL1        0.1846
      8 N          63.7533   84.0112   15.1460 N.2     1  UNL1       -0.1288
      9 N          63.4239   82.8476   14.2587 N.2     1  UNL1       -0.1508
     10 C          63.0847   83.3827   12.8990 C.2     1  UNL1        0.0837
     11 C          62.6942   82.5667   11.7025 C.3     1  UNL1        0.0541
     12 C          63.2045   84.8772   12.9460 C.ar    1  UNL1        0.0512
     13 C          62.9906   85.9345   11.9038 C.ar    1  UNL1        0.0105
     14 C          63.1901   87.3803   12.2502 C.ar    1  UNL1        0.0015
     15 C          62.9762   88.4376   11.2078 C.3     1  UNL1        0.0914
     16 C          62.5774   85.5461   10.5151 C.3     1  UNL1        0.1550
     17 O          63.3573   84.5086    9.7631 O.3     1  UNL1       -0.3756
     18 H          64.0908   84.1932   10.3139 H       1  UNL1        0.2112
     19 C          61.3844   86.1951    9.8784 C.ar    1  UNL1        0.0115
     20 C          61.0465   85.9028    8.4465 C.ar    1  UNL1        0.0191
     21 C          59.8534   86.5519    7.8099 C.ar    1  UNL1        0.0986
     22 N          58.9982   87.4932    8.6051 N.ar    1  UNL1       -0.2423
     23 C          59.3361   87.7855   10.0371 C.ar    1  UNL1        0.0986
     24 C          60.5292   87.1365   10.6738 C.ar    1  UNL1        0.0191
     25 C          64.0120   91.9858   10.2774 C.3     1  UNL1        0.2520
     26 O          62.9618   90.9407   10.5119 O.2     1  UNL1       -0.4754
@<TRIPOS>BOND
     1    25    26    1
     2    26     1    1
     3     1     2    2
     4     2     3    1
     5     3     4    1
     6     3     5    2
     7     5     6   ar
     8     6     7   ar
     9     7     8    1
    10     8     9    2
    11     9    10    1
    12    10    11    1
    13    10    12    2
    14    12    13   ar
    15    13    16    1
    16    16    17    1
    17    16    19    1
    18    19    20   ar
    19    20    21   ar
    20    21    22   ar
    21    22    23   ar
    22    23    24   ar
    23    13    14   ar
    24    14    15    1
    25    15     1    1
    26    14     5   ar
    27    12     7   ar
    28    24    19   ar
    29    17    18    1
@<TRIPOS>MOLECULE
*****
 26 29 0 0 0
SMALL
GASTEIGER

@<TRIPOS>ATOM
      1 C          62.9968   82.5179   12.2590 C.2     1  UNL1        0.1203
      2 C          63.3529   82.6650   13.7087 C.2     1  UNL1        0.0299
      3 C          63.5348   84.0309   14.3013 C.2     1  UNL1       -0.0018
      4 C          63.8909   84.1782   15.7510 C.3     1  UNL1        0.0327
      5 C          63.3605   85.2497   13.4443 C.ar    1  UNL1        0.0754
      6 N          63.5424   86.6156   14.0370 N.ar    1  UNL1       -0.2257
      7 C          63.3681   87.8342   13.1800 C.ar    1  UNL1        0.1846
      8 N          63.4823   89.2989   13.4828 N.2     1  UNL1       -0.1288
      9 N          63.1968   90.0569   12.2203 N.2     1  UNL1       -0.1508
     10 C          62.9061   89.0607   11.1372 C.2     1  UNL1        0.0837
     11 C          62.5687   89.3818    9.7113 C.3     1  UNL1        0.0541
     12 C          63.0120   87.6870   11.7303 C.ar    1  UNL1        0.0512
     13 C          62.8301   86.3211   11.1377 C.ar    1  UNL1        0.0105
     14 C          63.0044   85.1025   11.9947 C.ar    1  UNL1        0.0015
     15 C          62.8225   83.7365   11.4020 C.3     1  UNL1        0.0914
     16 C          62.4740   86.1738    9.6880 C.3     1  UNL1        0.1550
     17 O          63.4950   85.6678    8.7125 O.3     1  UNL1       -0.3756
     18 H          64.3252   85.4843    9.1794 H       1  UNL1        0.2112
     19 C          61.0968   86.5326    9.2138 C.ar    1  UNL1        0.0115
     20 C          60.2041   87.3777   10.0734 C.ar    1  UNL1        0.0191
     21 C          58.8270   87.7364    9.5991 C.ar    1  UNL1        0.0986
     22 N          58.3426   87.2500    8.2655 N.ar    1  UNL1       -0.2423
     23 C          59.2354   86.4048    7.4059 C.ar    1  UNL1        0.0986
     24 C          60.6125   86.0461    7.8801 C.ar    1  UNL1        0.0191
     25 C          62.5379   79.9781   12.5584 C.3     1  UNL1        0.2520
     26 O          62.8149   81.1520   11.6663 O.2     1  UNL1       -0.4754
@<TRIPOS>BOND
     1    25    26    1
     2    26     1    1
     3     1     2    2
     4     2     3    1
     5     3     4    1
     6     3     5    2
     7     5     6   ar
     8     6     7   ar
     9     7     8    1
    10     8     9    2
    11     9    10    1
    12    10    11    1
    13    10    12    2
    14    12    13   ar
    15    13    16    1
    16    16    17    1
    17    16    19    1
    18    19    20   ar
    19    20    21   ar
    20    21    22   ar
    21    22    23   ar
    22    23    24   ar
    23    13    14   ar
    24    14    15    1
    25    15     1    1
    26    14     5   ar
    27    12     7   ar
    28    24    19   ar
    29    17    18    1
