@<TRIPOS>MOLECULE
*****
 26 29 0 0 0
SMALL
GASTEIGER

@<TRIPOS>ATOM
      1 O          60.6733   89.3787   12.0758 O.2     1  UNL1       -0.2696
      2 C          62.0992   89.2856   11.6200 C.2     1  UNL1        0.2541
      3 N          62.4237   88.6631   10.2943 N.am    1  UNL1       -0.2791
      4 H          63.3596   88.6020    9.9950 H       1  UNL1        0.1552
      5 C          63.2008   89.8150   12.4897 C.ar    1  UNL1        0.1102
      6 C          63.5795   89.2974   13.8456 C.ar    1  UNL1        0.1281
      7 N          64.7298   90.1174   14.3500 N.ar    1  UNL1       -0.1619
      8 N          65.0619   91.1418   13.3058 N.ar    1  UNL1       -0.2105
      9 C          66.1028   92.2206   13.2534 C.ar    1  UNL1        0.1037
     10 C          66.1987   93.1124   12.0512 C.ar    1  UNL1        0.0414
     11 C          65.2537   92.9255   10.9014 C.ar    1  UNL1        0.1022
     12 N          64.2128   91.8467   10.9538 N.ar    1  UNL1       -0.2248
     13 C          64.1169   90.9548   12.1560 C.ar    1  UNL1        0.1697
     14 C          61.3221   88.1337    9.4246 C.ar    1  UNL1        0.0684
     15 C          60.4261   89.0843    8.6873 C.ar    1  UNL1        0.0178
     16 C          59.3246   88.5549    7.8176 C.ar    1  UNL1        0.0220
     17 C          59.1191   87.0750    7.6852 C.ar    1  UNL1        0.0989
     18 N          60.0151   86.1245    8.4225 N.ar    1  UNL1       -0.2426
     19 C          61.1167   86.6538    9.2922 C.ar    1  UNL1        0.0947
     20 C          62.0127   85.7033   10.0295 C.ar    1  UNL1        0.0197
     21 C          62.9987   84.8629    9.2735 C.ar    1  UNL1        0.0016
     22 C          63.8947   83.9124   10.0108 C.ar    1  UNL1        0.0009
     23 C          63.8047   83.8021   11.5041 C.ar    1  UNL1        0.0114
     24 C          62.8186   84.6425   12.2600 C.ar    1  UNL1        0.0577
     25 CL         62.7286   84.5323   13.7533 Cl      1  UNL1       -0.0822
     26 C          61.9226   85.5930   11.5227 C.ar    1  UNL1        0.0129
@<TRIPOS>BOND
     1     1     2    2
     2     2     3   am
     3     3    14    1
     4    14    15   ar
     5    15    16   ar
     6    16    17   ar
     7    17    18   ar
     8    18    19   ar
     9    19    20    1
    10    20    21   ar
    11    21    22   ar
    12    22    23   ar
    13    23    24   ar
    14    24    25    1
    15    24    26   ar
    16     2     5    1
    17     5     6   ar
    18     6     7   ar
    19     7     8   ar
    20     8     9   ar
    21     9    10   ar
    22    10    11   ar
    23    11    12   ar
    24    12    13   ar
    25    19    14   ar
    26    26    20   ar
    27    13     5   ar
    28    13     8   ar
    29     3     4    1
@<TRIPOS>MOLECULE
*****
 26 29 0 0 0
SMALL
GASTEIGER

@<TRIPOS>ATOM
      1 O          64.2696   87.2267   14.3801 O.2     1  UNL1       -0.2696
      2 C          63.4824   86.2958   13.5063 C.2     1  UNL1        0.2541
      3 N          62.8020   86.8180   12.2756 N.am    1  UNL1       -0.2791
      4 H          62.2853   86.2070   11.7020 H       1  UNL1        0.1552
      5 C          63.3757   84.8427   13.8629 C.ar    1  UNL1        0.1102
      6 C          63.2940   84.2791   15.2506 C.ar    1  UNL1        0.1281
      7 N          63.1997   82.7862   15.1397 N.ar    1  UNL1       -0.1619
      8 N          63.2231   82.4271   13.6836 N.ar    1  UNL1       -0.2105
      9 C          63.1595   81.1070   12.9742 C.ar    1  UNL1        0.1037
     10 C          63.2046   81.0579   11.4757 C.ar    1  UNL1        0.0414
     11 C          63.3133   82.3289   10.6866 C.ar    1  UNL1        0.1022
     12 N          63.3770   83.6490   11.3959 N.ar    1  UNL1       -0.2248
     13 C          63.3319   83.6981   12.8944 C.ar    1  UNL1        0.1697
     14 C          62.9087   88.2710   11.9190 C.ar    1  UNL1        0.0684
     15 C          63.5647   89.2299   12.8678 C.ar    1  UNL1        0.0178
     16 C          63.6715   90.6830   12.5111 C.ar    1  UNL1        0.0220
     17 C          63.1223   91.1771   11.2057 C.ar    1  UNL1        0.0989
     18 N          62.4663   90.2182   10.2569 N.ar    1  UNL1       -0.2426
     19 C          62.3595   88.7651   10.6135 C.ar    1  UNL1        0.0947
     20 C          61.7036   87.8062    9.6647 C.ar    1  UNL1        0.0197
     21 C          60.2364   87.9230    9.3754 C.ar    1  UNL1        0.0016
     22 C          59.5805   86.9641    8.4266 C.ar    1  UNL1        0.0009
     23 C          60.3917   85.8884    7.7671 C.ar    1  UNL1        0.0114
     24 C          61.8589   85.7716    8.0565 C.ar    1  UNL1        0.0577
     25 CL         62.6701   84.6959    7.3971 Cl      1  UNL1       -0.0822
     26 C          62.5148   86.7305    9.0053 C.ar    1  UNL1        0.0129
@<TRIPOS>BOND
     1     1     2    2
     2     2     3   am
     3     3    14    1
     4    14    15   ar
     5    15    16   ar
     6    16    17   ar
     7    17    18   ar
     8    18    19   ar
     9    19    20    1
    10    20    21   ar
    11    21    22   ar
    12    22    23   ar
    13    23    24   ar
    14    24    25    1
    15    24    26   ar
    16     2     5    1
    17     5     6   ar
    18     6     7   ar
    19     7     8   ar
    20     8     9   ar
    21     9    10   ar
    22    10    11   ar
    23    11    12   ar
    24    12    13   ar
    25    19    14   ar
    26    26    20   ar
    27    13     5   ar
    28    13     8   ar
    29     3     4    1
@<TRIPOS>MOLECULE
*****
 26 29 0 0 0
SMALL
GASTEIGER

@<TRIPOS>ATOM
      1 O          62.9624   85.1208    8.3129 O.2     1  UNL1       -0.2696
      2 C          62.6296   85.1094    9.7754 C.2     1  UNL1        0.2541
      3 N          61.5664   86.0228   10.3098 N.am    1  UNL1       -0.2791
      4 H          61.3479   86.0154   11.2697 H       1  UNL1        0.1552
      5 C          63.3598   84.1847   10.7037 C.ar    1  UNL1        0.1102
      6 C          64.3873   83.1667   10.3060 C.ar    1  UNL1        0.1281
      7 N          64.8532   82.4685   11.5491 N.ar    1  UNL1       -0.1619
      8 N          64.1138   83.0549   12.7151 N.ar    1  UNL1       -0.2105
      9 C          64.1617   82.7602   14.1850 C.ar    1  UNL1        0.1037
     10 C          63.2866   83.5261   15.1324 C.ar    1  UNL1        0.0414
     11 C          62.3636   84.5867   14.6098 C.ar    1  UNL1        0.1022
     12 N          62.3157   84.8815   13.1399 N.ar    1  UNL1       -0.2248
     13 C          63.1908   84.1156   12.1925 C.ar    1  UNL1        0.1697
     14 C          60.8362   86.9476    9.3815 C.ar    1  UNL1        0.0684
     15 C          59.8906   86.3909    8.3588 C.ar    1  UNL1        0.0178
     16 C          59.1604   87.3156    7.4305 C.ar    1  UNL1        0.0220
     17 C          59.3758   88.7970    7.5251 C.ar    1  UNL1        0.0989
     18 N          60.3213   89.3537    8.5478 N.ar    1  UNL1       -0.2426
     19 C          61.0516   88.4290    9.4761 C.ar    1  UNL1        0.0947
     20 C          61.9971   88.9857   10.4988 C.ar    1  UNL1        0.0197
     21 C          62.4583   90.4094   10.3974 C.ar    1  UNL1        0.0016
     22 C          63.4038   90.9661   11.4201 C.ar    1  UNL1        0.0009
     23 C          63.8882   90.0991   12.5442 C.ar    1  UNL1        0.0114
     24 C          63.4271   88.6754   12.6456 C.ar    1  UNL1        0.0577
     25 CL         63.9115   87.8084   13.7698 Cl      1  UNL1       -0.0822
     26 C          62.4815   88.1187   11.6229 C.ar    1  UNL1        0.0129
@<TRIPOS>BOND
     1     1     2    2
     2     2     3   am
     3     3    14    1
     4    14    15   ar
     5    15    16   ar
     6    16    17   ar
     7    17    18   ar
     8    18    19   ar
     9    19    20    1
    10    20    21   ar
    11    21    22   ar
    12    22    23   ar
    13    23    24   ar
    14    24    25    1
    15    24    26   ar
    16     2     5    1
    17     5     6   ar
    18     6     7   ar
    19     7     8   ar
    20     8     9   ar
    21     9    10   ar
    22    10    11   ar
    23    11    12   ar
    24    12    13   ar
    25    19    14   ar
    26    26    20   ar
    27    13     5   ar
    28    13     8   ar
    29     3     4    1
@<TRIPOS>MOLECULE
*****
 26 29 0 0 0
SMALL
GASTEIGER

@<TRIPOS>ATOM
      1 O          63.4617   84.2453    9.9844 O.2     1  UNL1       -0.2696
      2 C          62.4666   85.0656   10.7502 C.2     1  UNL1        0.2541
      3 N          62.0319   84.6318   12.1189 N.am    1  UNL1       -0.2791
      4 H          61.3787   85.1702   12.6216 H       1  UNL1        0.1552
      5 C          61.9060   86.3196   10.1476 C.ar    1  UNL1        0.1102
      6 C          61.0558   86.4017    8.9146 C.ar    1  UNL1        0.1281
      7 N          60.7216   87.8446    8.6772 N.ar    1  UNL1       -0.1619
      8 N          61.3651   88.6543    9.7636 N.ar    1  UNL1       -0.2105
      9 C          61.3792   90.1280   10.0426 C.ar    1  UNL1        0.1037
     10 C          62.1253   90.6592   11.2305 C.ar    1  UNL1        0.0414
     11 C          62.8573   89.7168   12.1393 C.ar    1  UNL1        0.1022
     12 N          62.8432   88.2431   11.8602 N.ar    1  UNL1       -0.2248
     13 C          62.0972   87.7118   10.6723 C.ar    1  UNL1        0.1697
     14 C          62.5925   83.3778   12.7215 C.ar    1  UNL1        0.0684
     15 C          62.4167   82.0644   12.0186 C.ar    1  UNL1        0.0178
     16 C          62.9773   80.8103   12.6212 C.ar    1  UNL1        0.0220
     17 C          63.7137   80.8698   13.9267 C.ar    1  UNL1        0.0989
     18 N          63.8895   82.1832   14.6295 N.ar    1  UNL1       -0.2426
     19 C          63.3289   83.4373   14.0269 C.ar    1  UNL1        0.0947
     20 C          63.5047   84.7507   14.7297 C.ar    1  UNL1        0.0197
     21 C          64.2537   85.8649   14.0608 C.ar    1  UNL1        0.0016
     22 C          64.4295   87.1783   14.7637 C.ar    1  UNL1        0.0009
     23 C          63.8562   87.3775   16.1354 C.ar    1  UNL1        0.0114
     24 C          63.1072   86.2634   16.8043 C.ar    1  UNL1        0.0577
     25 CL         62.5339   86.4626   18.1761 Cl      1  UNL1       -0.0822
     26 C          62.9314   84.9499   16.1015 C.ar    1  UNL1        0.0129
@<TRIPOS>BOND
     1     1     2    2
     2     2     3   am
     3     3    14    1
     4    14    15   ar
     5    15    16   ar
     6    16    17   ar
     7    17    18   ar
     8    18    19   ar
     9    19    20    1
    10    20    21   ar
    11    21    22   ar
    12    22    23   ar
    13    23    24   ar
    14    24    25    1
    15    24    26   ar
    16     2     5    1
    17     5     6   ar
    18     6     7   ar
    19     7     8   ar
    20     8     9   ar
    21     9    10   ar
    22    10    11   ar
    23    11    12   ar
    24    12    13   ar
    25    19    14   ar
    26    26    20   ar
    27    13     5   ar
    28    13     8   ar
    29     3     4    1
@<TRIPOS>MOLECULE
*****
 26 29 0 0 0
SMALL
GASTEIGER

@<TRIPOS>ATOM
      1 O          64.1633   89.4359   13.8856 O.2     1  UNL1       -0.2696
      2 C          63.8821   90.3090   12.6989 C.2     1  UNL1        0.2541
      3 N          64.5531   91.6449   12.5748 N.am    1  UNL1       -0.2791
      4 H          64.3686   92.2180   11.7959 H       1  UNL1        0.1552
      5 C          62.9299   89.8464   11.6361 C.ar    1  UNL1        0.1102
      6 C          62.2327   90.7203   10.6360 C.ar    1  UNL1        0.1281
      7 N          61.3797   89.8426    9.7687 N.ar    1  UNL1       -0.1619
      8 N          61.5498   88.4264   10.2328 N.ar    1  UNL1       -0.2105
      9 C          60.9561   87.1350    9.7535 C.ar    1  UNL1        0.1037
     10 C          61.3205   85.8459   10.4284 C.ar    1  UNL1        0.0414
     11 C          62.2786   85.8483   11.5825 C.ar    1  UNL1        0.1022
     12 N          62.8723   87.1397   12.0618 N.ar    1  UNL1       -0.2248
     13 C          62.5079   88.4287   11.3869 C.ar    1  UNL1        0.1697
     14 C          65.5052   92.1075   13.6376 C.ar    1  UNL1        0.0684
     15 C          65.1664   91.9105   15.0855 C.ar    1  UNL1        0.0178
     16 C          66.1185   92.3731   16.1483 C.ar    1  UNL1        0.0220
     17 C          67.4095   93.0326   15.7631 C.ar    1  UNL1        0.0989
     18 N          67.7483   93.2296   14.3152 N.ar    1  UNL1       -0.2426
     19 C          66.7962   92.7670   13.2524 C.ar    1  UNL1        0.0947
     20 C          67.1350   92.9640   11.8045 C.ar    1  UNL1        0.0197
     21 C          67.9513   91.9360   11.0787 C.ar    1  UNL1        0.0016
     22 C          68.2902   92.1330    9.6309 C.ar    1  UNL1        0.0009
     23 C          67.8127   93.3580    8.9088 C.ar    1  UNL1        0.0114
     24 C          66.9963   94.3860    9.6346 C.ar    1  UNL1        0.0577
     25 CL         66.5189   95.6110    8.9125 Cl      1  UNL1       -0.0822
     26 C          66.6575   94.1890   11.0824 C.ar    1  UNL1        0.0129
@<TRIPOS>BOND
     1     1     2    2
     2     2     3   am
     3     3    14    1
     4    14    15   ar
     5    15    16   ar
     6    16    17   ar
     7    17    18   ar
     8    18    19   ar
     9    19    20    1
    10    20    21   ar
    11    21    22   ar
    12    22    23   ar
    13    23    24   ar
    14    24    25    1
    15    24    26   ar
    16     2     5    1
    17     5     6   ar
    18     6     7   ar
    19     7     8   ar
    20     8     9   ar
    21     9    10   ar
    22    10    11   ar
    23    11    12   ar
    24    12    13   ar
    25    19    14   ar
    26    26    20   ar
    27    13     5   ar
    28    13     8   ar
    29     3     4    1
@<TRIPOS>MOLECULE
*****
 26 29 0 0 0
SMALL
GASTEIGER

@<TRIPOS>ATOM
      1 O          60.6514   90.6915   10.6718 O.2     1  UNL1       -0.2696
      2 C          61.9973   90.0332   10.7408 C.2     1  UNL1        0.2541
      3 N          62.2463   88.7553    9.9957 N.am    1  UNL1       -0.2791
      4 H          63.1297   88.3231   10.0410 H       1  UNL1        0.1552
      5 C          63.0944   90.6526   11.5550 C.ar    1  UNL1        0.1102
      6 C          64.1932   91.5294   11.0317 C.ar    1  UNL1        0.1281
      7 N          65.0631   91.9226   12.1887 N.ar    1  UNL1       -0.1619
      8 N          64.5019   91.2888   13.4270 N.ar    1  UNL1       -0.2105
      9 C          64.9417   91.3249   14.8606 C.ar    1  UNL1        0.1037
     10 C          64.1648   90.5762   15.9025 C.ar    1  UNL1        0.0414
     11 C          62.9480   89.7913   15.5109 C.ar    1  UNL1        0.1022
     12 N          62.5082   89.7551   14.0773 N.ar    1  UNL1       -0.2248
     13 C          63.2852   90.5038   13.0354 C.ar    1  UNL1        0.1697
     14 C          61.1493   88.1359    9.1815 C.ar    1  UNL1        0.0684
     15 C          60.2066   89.0080    8.4064 C.ar    1  UNL1        0.0178
     16 C          59.1096   88.3886    7.5922 C.ar    1  UNL1        0.0220
     17 C          58.9552   86.8971    7.5533 C.ar    1  UNL1        0.0989
     18 N          59.8978   86.0250    8.3284 N.ar    1  UNL1       -0.2426
     19 C          60.9949   86.6444    9.1426 C.ar    1  UNL1        0.0947
     20 C          61.9375   85.7723    9.9178 C.ar    1  UNL1        0.0197
     21 C          62.9728   84.9607    9.1970 C.ar    1  UNL1        0.0016
     22 C          63.9154   84.0885    9.9722 C.ar    1  UNL1        0.0009
     23 C          63.8227   84.0281   11.4681 C.ar    1  UNL1        0.0114
     24 C          62.7875   84.8397   12.1888 C.ar    1  UNL1        0.0577
     25 CL         62.6949   84.7792   13.6848 Cl      1  UNL1       -0.0822
     26 C          61.8449   85.7118   11.4137 C.ar    1  UNL1        0.0129
@<TRIPOS>BOND
     1     1     2    2
     2     2     3   am
     3     3    14    1
     4    14    15   ar
     5    15    16   ar
     6    16    17   ar
     7    17    18   ar
     8    18    19   ar
     9    19    20    1
    10    20    21   ar
    11    21    22   ar
    12    22    23   ar
    13    23    24   ar
    14    24    25    1
    15    24    26   ar
    16     2     5    1
    17     5     6   ar
    18     6     7   ar
    19     7     8   ar
    20     8     9   ar
    21     9    10   ar
    22    10    11   ar
    23    11    12   ar
    24    12    13   ar
    25    19    14   ar
    26    26    20   ar
    27    13     5   ar
    28    13     8   ar
    29     3     4    1
@<TRIPOS>MOLECULE
*****
 26 29 0 0 0
SMALL
GASTEIGER

@<TRIPOS>ATOM
      1 O          63.4857   87.4278   15.7908 O.2     1  UNL1       -0.2696
      2 C          63.8069   87.7710   14.3664 C.2     1  UNL1        0.2541
      3 N          63.7897   86.7011   13.3151 N.am    1  UNL1       -0.2791
      4 H          64.0005   86.9262   12.3801 H       1  UNL1        0.1552
      5 C          64.1451   89.1839   13.9931 C.ar    1  UNL1        0.1102
      6 C          64.8835   90.1694   14.8496 C.ar    1  UNL1        0.1281
      7 N          64.9991   91.4539   14.0837 N.ar    1  UNL1       -0.1619
      8 N          64.3321   91.2622   12.7538 N.ar    1  UNL1       -0.2105
      9 C          64.1373   92.1840   11.5866 C.ar    1  UNL1        0.1037
     10 C          63.4146   91.7027   10.3635 C.ar    1  UNL1        0.0414
     11 C          62.8868   90.2998   10.3075 C.ar    1  UNL1        0.1022
     12 N          63.0817   89.3780   11.4747 N.ar    1  UNL1       -0.2248
     13 C          63.8044   89.8593   12.6979 C.ar    1  UNL1        0.1697
     14 C          63.4515   85.2882   13.6883 C.ar    1  UNL1        0.0684
     15 C          63.7173   84.7959   15.0800 C.ar    1  UNL1        0.0178
     16 C          63.3791   83.3830   15.4533 C.ar    1  UNL1        0.0220
     17 C          62.7749   82.4625   14.4347 C.ar    1  UNL1        0.0989
     18 N          62.5090   82.9547   13.0430 N.ar    1  UNL1       -0.2426
     19 C          62.8473   84.3676   12.6697 C.ar    1  UNL1        0.0947
     20 C          62.5814   84.8599   11.2780 C.ar    1  UNL1        0.0197
     21 C          63.4232   84.3721   10.1363 C.ar    1  UNL1        0.0016
     22 C          63.1573   84.8643    8.7446 C.ar    1  UNL1        0.0009
     23 C          62.0496   85.8444    8.4945 C.ar    1  UNL1        0.0114
     24 C          61.2078   86.3322    9.6362 C.ar    1  UNL1        0.0577
     25 CL         60.1001   87.3122    9.3861 Cl      1  UNL1       -0.0822
     26 C          61.4737   85.8399   11.0279 C.ar    1  UNL1        0.0129
@<TRIPOS>BOND
     1     1     2    2
     2     2     3   am
     3     3    14    1
     4    14    15   ar
     5    15    16   ar
     6    16    17   ar
     7    17    18   ar
     8    18    19   ar
     9    19    20    1
    10    20    21   ar
    11    21    22   ar
    12    22    23   ar
    13    23    24   ar
    14    24    25    1
    15    24    26   ar
    16     2     5    1
    17     5     6   ar
    18     6     7   ar
    19     7     8   ar
    20     8     9   ar
    21     9    10   ar
    22    10    11   ar
    23    11    12   ar
    24    12    13   ar
    25    19    14   ar
    26    26    20   ar
    27    13     5   ar
    28    13     8   ar
    29     3     4    1
@<TRIPOS>MOLECULE
*****
 26 29 0 0 0
SMALL
GASTEIGER

@<TRIPOS>ATOM
      1 O          63.3161   84.7480    9.9837 O.2     1  UNL1       -0.2696
      2 C          62.4806   85.6289   10.8645 C.2     1  UNL1        0.2541
      3 N          62.1408   85.1900   12.2582 N.am    1  UNL1       -0.2791
      4 H          61.5925   85.7681   12.8364 H       1  UNL1        0.1552
      5 C          61.9848   86.9485   10.3519 C.ar    1  UNL1        0.1102
      6 C          62.4458   88.3011   10.8081 C.ar    1  UNL1        0.1281
      7 N          61.6869   89.3357   10.0313 N.ar    1  UNL1       -0.1619
      8 N          60.7568   88.6226    9.0950 N.ar    1  UNL1       -0.2105
      9 C          59.7661   89.1262    8.0876 C.ar    1  UNL1        0.1037
     10 C          58.9595   88.1543    7.2785 C.ar    1  UNL1        0.0414
     11 C          59.1436   86.6789    7.4767 C.ar    1  UNL1        0.1022
     12 N          60.1344   86.1754    8.4840 N.ar    1  UNL1       -0.2248
     13 C          60.9410   87.1472    9.2932 C.ar    1  UNL1        0.1697
     14 C          62.6366   83.8703   12.7707 C.ar    1  UNL1        0.0684
     15 C          62.5810   82.6557   11.8923 C.ar    1  UNL1        0.0178
     16 C          63.0768   81.3361   12.4049 C.ar    1  UNL1        0.0220
     17 C          63.6281   81.2311   13.7959 C.ar    1  UNL1        0.0989
     18 N          63.6838   82.4457   14.6743 N.ar    1  UNL1       -0.2426
     19 C          63.1880   83.7654   14.1617 C.ar    1  UNL1        0.0947
     20 C          63.2436   84.9800   15.0402 C.ar    1  UNL1        0.0197
     21 C          62.6281   84.9454   16.4076 C.ar    1  UNL1        0.0016
     22 C          62.6837   86.1600   17.2860 C.ar    1  UNL1        0.0009
     23 C          63.3548   87.4092   16.7970 C.ar    1  UNL1        0.0114
     24 C          63.9703   87.4438   15.4295 C.ar    1  UNL1        0.0577
     25 CL         64.6415   88.6930   14.9405 Cl      1  UNL1       -0.0822
     26 C          63.9147   86.2292   14.5511 C.ar    1  UNL1        0.0129
@<TRIPOS>BOND
     1     1     2    2
     2     2     3   am
     3     3    14    1
     4    14    15   ar
     5    15    16   ar
     6    16    17   ar
     7    17    18   ar
     8    18    19   ar
     9    19    20    1
    10    20    21   ar
    11    21    22   ar
    12    22    23   ar
    13    23    24   ar
    14    24    25    1
    15    24    26   ar
    16     2     5    1
    17     5     6   ar
    18     6     7   ar
    19     7     8   ar
    20     8     9   ar
    21     9    10   ar
    22    10    11   ar
    23    11    12   ar
    24    12    13   ar
    25    19    14   ar
    26    26    20   ar
    27    13     5   ar
    28    13     8   ar
    29     3     4    1
@<TRIPOS>MOLECULE
*****
 26 29 0 0 0
SMALL
GASTEIGER

@<TRIPOS>ATOM
      1 O          67.5073   91.6740   13.3251 O.2     1  UNL1       -0.2696
      2 C          66.5619   92.1512   12.2629 C.2     1  UNL1        0.2541
      3 N          65.0808   92.0788   12.4896 N.am    1  UNL1       -0.2791
      4 H          64.4602   92.3920   11.7925 H       1  UNL1        0.1552
      5 C          67.0974   92.7010   10.9741 C.ar    1  UNL1        0.1102
      6 C          68.1276   92.0510   10.0987 C.ar    1  UNL1        0.1281
      7 N          68.3635   92.9455    8.9180 N.ar    1  UNL1       -0.1619
      8 N          67.4791   94.1483    9.0636 N.ar    1  UNL1       -0.2105
      9 C          67.2852   95.3616    8.2032 C.ar    1  UNL1        0.1037
     10 C          66.3088   96.4238    8.6136 C.ar    1  UNL1        0.0414
     11 C          65.5263   96.2726    9.8844 C.ar    1  UNL1        0.1022
     12 N          65.7202   95.0593   10.7447 N.ar    1  UNL1       -0.2248
     13 C          66.6966   93.9972   10.3343 C.ar    1  UNL1        0.1697
     14 C          64.5454   91.5290   13.7784 C.ar    1  UNL1        0.0684
     15 C          65.0305   92.0784   15.0872 C.ar    1  UNL1        0.0178
     16 C          64.4950   91.5287   16.3760 C.ar    1  UNL1        0.0220
     17 C          63.4745   90.4296   16.3560 C.ar    1  UNL1        0.0989
     18 N          62.9894   89.8802   15.0473 N.ar    1  UNL1       -0.2426
     19 C          63.5248   90.4299   13.7584 C.ar    1  UNL1        0.0947
     20 C          63.0397   89.8806   12.4497 C.ar    1  UNL1        0.0197
     21 C          62.6582   90.8144   11.3395 C.ar    1  UNL1        0.0016
     22 C          62.1731   90.2650   10.0308 C.ar    1  UNL1        0.0009
     23 C          62.0695   88.7818    9.8322 C.ar    1  UNL1        0.0114
     24 C          62.4511   87.8480   10.9423 C.ar    1  UNL1        0.0577
     25 CL         62.3475   86.3648   10.7437 Cl      1  UNL1       -0.0822
     26 C          62.9362   88.3974   12.2511 C.ar    1  UNL1        0.0129
@<TRIPOS>BOND
     1     1     2    2
     2     2     3   am
     3     3    14    1
     4    14    15   ar
     5    15    16   ar
     6    16    17   ar
     7    17    18   ar
     8    18    19   ar
     9    19    20    1
    10    20    21   ar
    11    21    22   ar
    12    22    23   ar
    13    23    24   ar
    14    24    25    1
    15    24    26   ar
    16     2     5    1
    17     5     6   ar
    18     6     7   ar
    19     7     8   ar
    20     8     9   ar
    21     9    10   ar
    22    10    11   ar
    23    11    12   ar
    24    12    13   ar
    25    19    14   ar
    26    26    20   ar
    27    13     5   ar
    28    13     8   ar
    29     3     4    1
