@<TRIPOS>MOLECULE
*****
 44 47 0 0 0
SMALL
GASTEIGER

@<TRIPOS>ATOM
      1 N          61.2953   89.9900    9.5983 N.pl3   1  UNL1       -0.2814
      2 H          60.8069   90.6945    9.1142 H       1  UNL1        0.1551
      3 C          62.1378   90.3435   10.7879 C.ar    1  UNL1        0.1349
      4 C          61.8876   89.6778   12.1086 C.ar    1  UNL1        0.0377
      5 C          62.7301   90.0313   13.2982 C.ar    1  UNL1        0.0427
      6 C          63.8228   91.0505   13.1672 C.ar    1  UNL1        0.1708
      7 C          64.0731   91.7162   11.8465 C.ar    1  UNL1        0.1749
      8 N          63.2306   91.3627   10.6568 N.ar    1  UNL1       -0.2123
      9 N          65.1658   92.7354   11.7154 N.am    1  UNL1       -0.2114
     10 C          66.0083   93.0889   12.9050 C.2     1  UNL1        0.2685
     11 O          67.1010   94.1081   12.7740 O.2     1  UNL1       -0.2707
     12 C          65.7581   92.4233   14.2257 C.3     1  UNL1        0.2014
     13 C          65.9051   92.0688   15.6758 C.3     1  UNL1        0.0532
     14 C          66.9018   93.3193   14.5983 C.3     1  UNL1        0.0532
     15 O          64.6653   91.4040   14.3568 O.3     1  UNL1       -0.4711
     16 C          65.4160   93.4011   10.3947 C.3     1  UNL1        0.2576
     17 O          66.7558   93.2736    9.7324 O.3     1  UNL1       -0.2512
     18 P          67.4412   94.4907    9.1860 P.3     1  UNL1        0.4746
     19 O          68.7695   93.9263    9.5949 O.2     1  UNL1       -0.2274
     20 O          66.1130   95.0551    8.7771 O.3     1  UNL1       -0.3026
     21 O          68.1268   95.7080    8.6396 O.3     1  UNL1       -0.3026
     22 H          65.4088   94.4347    9.0221 H       1  UNL1        0.2220
     23 H          69.0843   95.6262    8.7711 H       1  UNL1        0.2220
     24 C          62.1717   86.1561    9.0654 C.ar    1  UNL1        0.2220
     25 N          61.0001   85.7093    8.2423 N.ar    1  UNL1       -0.2096
     26 C          59.9269   86.6893    7.8712 C.ar    1  UNL1        0.1343
     27 C          60.0252   88.1162    8.3232 C.ar    1  UNL1        0.1908
     28 F          58.9520   89.0962    7.9520 F       1  UNL1       -0.1996
     29 C          61.1969   88.5631    9.1463 C.ar    1  UNL1        0.1654
     30 N          62.2702   87.5831    9.5174 N.ar    1  UNL1       -0.1961
     31 N          63.2450   85.1761    9.4365 N.pl3   1  UNL1       -0.2823
     32 H          64.0747   85.1315    8.9086 H       1  UNL1        0.1551
     33 C          62.5951   83.9270   13.1470 C.ar    1  UNL1        0.1767
     34 C          62.7861   84.8389   11.9715 C.ar    1  UNL1        0.0549
     35 C          63.0539   84.2642   10.6121 C.ar    1  UNL1        0.0567
     36 C          63.1307   82.7775   10.4283 C.ar    1  UNL1        0.0549
     37 C          62.9397   81.8655   11.6037 C.ar    1  UNL1        0.1767
     38 C          62.6719   82.4403   12.9632 C.ar    1  UNL1        0.2061
     39 C          63.4572   85.0572   15.3217 C.3     1  UNL1        0.2526
     40 O          62.3273   84.5017   14.5064 O.3     1  UNL1       -0.4682
     41 O          63.0165   80.3788   11.4199 O.3     1  UNL1       -0.4682
     42 C          62.9096   79.7865   10.0459 C.3     1  UNL1        0.2526
     43 O          62.4809   81.5283   14.1387 O.3     1  UNL1       -0.4654
     44 C          61.1820   80.8004   14.3199 C.3     1  UNL1        0.2528
@<TRIPOS>BOND
     1    39    40    1
     2    40    33    1
     3    33    34   ar
     4    34    35   ar
     5    35    31    1
     6    31    24    1
     7    24    25   ar
     8    25    26   ar
     9    26    27   ar
    10    27    28    1
    11    27    29   ar
    12    29     1    1
    13     1     3    1
    14     3     4   ar
    15     4     5   ar
    16     5     6   ar
    17     6     7   ar
    18     7     8   ar
    19     7     9    1
    20     9    16    1
    21    16    17    1
    22    17    18    1
    23    18    19    2
    24    18    20    1
    25    18    21    1
    26     9    10   am
    27    10    11    2
    28    10    12    1
    29    12    13    1
    30    12    14    1
    31    12    15    1
    32    29    30   ar
    33    35    36   ar
    34    36    37   ar
    35    37    41    1
    36    41    42    1
    37    37    38   ar
    38    38    43    1
    39    43    44    1
    40    38    33   ar
    41    30    24   ar
    42     8     3   ar
    43    15     6    1
    44    31    32    1
    45     1     2    1
    46    20    22    1
    47    21    23    1
@<TRIPOS>MOLECULE
*****
 44 47 0 0 0
SMALL
GASTEIGER

@<TRIPOS>ATOM
      1 N          61.2942   89.9781    9.6321 N.pl3   1  UNL1       -0.2814
      2 H          60.7826   90.6797    9.1682 H       1  UNL1        0.1551
      3 C          62.1561   90.3314   10.8078 C.ar    1  UNL1        0.1349
      4 C          61.9437   89.6476   12.1258 C.ar    1  UNL1        0.0377
      5 C          62.8056   90.0010   13.3016 C.ar    1  UNL1        0.0427
      6 C          63.8798   91.0381   13.1592 C.ar    1  UNL1        0.1708
      7 C          64.0923   91.7220   11.8411 C.ar    1  UNL1        0.1749
      8 N          63.2304   91.3686   10.6654 N.ar    1  UNL1       -0.2123
      9 N          65.1665   92.7591   11.6988 N.am    1  UNL1       -0.2114
     10 C          66.0284   93.1125   12.8746 C.2     1  UNL1        0.2685
     11 O          67.1026   94.1496   12.7322 O.2     1  UNL1       -0.2707
     12 C          65.8160   92.4287   14.1926 C.3     1  UNL1        0.2014
     13 C          65.9988   92.0606   15.6353 C.3     1  UNL1        0.0532
     14 C          66.9537   93.3380   14.5514 C.3     1  UNL1        0.0532
     15 O          64.7417   91.3914   14.3350 O.3     1  UNL1       -0.4711
     16 C          65.3789   93.4429   10.3808 C.3     1  UNL1        0.2576
     17 O          66.7007   93.3287    9.6809 O.3     1  UNL1       -0.2512
     18 P          67.3870   94.5601    9.1687 P.3     1  UNL1        0.4746
     19 O          68.7119   93.9970    9.5901 O.2     1  UNL1       -0.2274
     20 O          66.0622   95.1232    8.7473 O.3     1  UNL1       -0.3026
     21 O          68.0735   95.7916    8.6565 O.3     1  UNL1       -0.3026
     22 H          65.3582   94.4938    8.9688 H       1  UNL1        0.2220
     23 H          69.0292   95.7137    8.8030 H       1  UNL1        0.2220
     24 C          62.1983   86.1536    9.0786 C.ar    1  UNL1        0.2220
     25 N          61.0470   85.7109    8.2250 N.ar    1  UNL1       -0.2096
     26 C          59.9782   86.6905    7.8405 C.ar    1  UNL1        0.1343
     27 C          60.0606   88.1129    8.3095 C.ar    1  UNL1        0.1908
     28 F          58.9917   89.0925    7.9249 F       1  UNL1       -0.1996
     29 C          61.2118   88.5557    9.1631 C.ar    1  UNL1        0.1654
     30 N          62.2807   87.5761    9.5476 N.ar    1  UNL1       -0.1961
     31 N          63.2671   85.1740    9.4631 N.pl3   1  UNL1       -0.2823
     32 H          64.0984   85.1212    8.9383 H       1  UNL1        0.1551
     33 C          62.9507   81.8870   11.6645 C.ar    1  UNL1        0.1767
     34 C          63.1484   82.7862   10.4802 C.ar    1  UNL1        0.0549
     35 C          63.0694   84.2747   10.6474 C.ar    1  UNL1        0.0567
     36 C          62.7927   84.8641   11.9987 C.ar    1  UNL1        0.0549
     37 C          62.5950   83.9650   13.1829 C.ar    1  UNL1        0.1767
     38 C          62.6740   82.4763   13.0158 C.ar    1  UNL1        0.2061
     39 C          62.8219   79.7834   10.1451 C.3     1  UNL1        0.2526
     40 O          63.0297   80.3984   11.4974 O.3     1  UNL1       -0.4682
     41 O          62.3184   84.5543   14.5342 O.3     1  UNL1       -0.4682
     42 C          63.4535   85.0300   15.3917 C.3     1  UNL1        0.2526
     43 O          62.4763   81.5772   14.2000 O.3     1  UNL1       -0.4654
     44 C          61.2237   80.7608   14.3211 C.3     1  UNL1        0.2528
@<TRIPOS>BOND
     1    39    40    1
     2    40    33    1
     3    33    34   ar
     4    34    35   ar
     5    35    31    1
     6    31    24    1
     7    24    25   ar
     8    25    26   ar
     9    26    27   ar
    10    27    28    1
    11    27    29   ar
    12    29     1    1
    13     1     3    1
    14     3     4   ar
    15     4     5   ar
    16     5     6   ar
    17     6     7   ar
    18     7     8   ar
    19     7     9    1
    20     9    16    1
    21    16    17    1
    22    17    18    1
    23    18    19    2
    24    18    20    1
    25    18    21    1
    26     9    10   am
    27    10    11    2
    28    10    12    1
    29    12    13    1
    30    12    14    1
    31    12    15    1
    32    29    30   ar
    33    35    36   ar
    34    36    37   ar
    35    37    41    1
    36    41    42    1
    37    37    38   ar
    38    38    43    1
    39    43    44    1
    40    38    33   ar
    41    30    24   ar
    42     8     3   ar
    43    15     6    1
    44    31    32    1
    45     1     2    1
    46    20    22    1
    47    21    23    1
@<TRIPOS>MOLECULE
*****
 44 47 0 0 0
SMALL
GASTEIGER

@<TRIPOS>ATOM
      1 N          64.2005   85.8704   14.0626 N.pl3   1  UNL1       -0.2814
      2 H          64.9488   85.2502   14.2196 H       1  UNL1        0.1551
      3 C          63.4264   85.8022   12.7796 C.ar    1  UNL1        0.1349
      4 C          63.3650   84.5173   12.0081 C.ar    1  UNL1        0.0377
      5 C          62.5908   84.4491   10.7251 C.ar    1  UNL1        0.0427
      6 C          61.8781   85.6657   10.2137 C.ar    1  UNL1        0.1708
      7 C          61.9395   86.9507   10.9852 C.ar    1  UNL1        0.1749
      8 N          62.7136   87.0189   12.2681 N.ar    1  UNL1       -0.2123
      9 N          61.2267   88.1674   10.4737 N.am    1  UNL1       -0.2114
     10 C          60.4526   88.0992    9.1907 C.2     1  UNL1        0.2685
     11 O          59.7399   89.3158    8.6792 O.2     1  UNL1       -0.2707
     12 C          60.3912   86.8143    8.4192 C.3     1  UNL1        0.2014
     13 C          60.0399   85.8336    7.3398 C.3     1  UNL1        0.0532
     14 C          59.5564   87.6903    7.5328 C.3     1  UNL1        0.0532
     15 O          61.1040   85.5975    8.9307 O.3     1  UNL1       -0.4711
     16 C          61.2881   89.4523   11.2451 C.3     1  UNL1        0.2576
     17 O          60.4914   89.6086   12.5065 O.3     1  UNL1       -0.2512
     18 P          58.9937   89.5388   12.4610 P.3     1  UNL1        0.4746
     19 O          58.9595   90.8014   11.6519 O.2     1  UNL1       -0.2274
     20 O          59.0280   88.2762   13.2701 O.3     1  UNL1       -0.3026
     21 O          57.4960   89.4691   12.4155 O.3     1  UNL1       -0.3026
     22 H          59.9485   88.0466   13.4722 H       1  UNL1        0.2220
     23 H          57.1523   90.2239   11.9124 H       1  UNL1        0.2220
     24 C          63.5506   89.3611   15.8354 C.ar    1  UNL1        0.2220
     25 N          63.1027   88.9100   17.1940 N.ar    1  UNL1       -0.2096
     26 C          63.0207   87.4457   17.5089 C.ar    1  UNL1        0.1343
     27 C          63.3866   86.4325   16.4651 C.ar    1  UNL1        0.1908
     28 F          63.3046   84.9682   16.7799 F       1  UNL1       -0.1996
     29 C          63.8346   86.8836   15.1064 C.ar    1  UNL1        0.1654
     30 N          63.9166   88.3479   14.7916 N.ar    1  UNL1       -0.1961
     31 N          63.6326   90.8254   15.5206 N.pl3   1  UNL1       -0.2823
     32 H          63.0439   91.4626   15.9860 H       1  UNL1        0.1551
     33 C          67.0196   92.0556   13.8577 C.ar    1  UNL1        0.1767
     34 C          66.0407   91.5623   14.8817 C.ar    1  UNL1        0.0549
     35 C          64.6116   91.3187   14.4967 C.ar    1  UNL1        0.0567
     36 C          64.1613   91.5684   13.0878 C.ar    1  UNL1        0.0549
     37 C          65.1402   92.0617   12.0639 C.ar    1  UNL1        0.1767
     38 C          66.5694   92.3053   12.4489 C.ar    1  UNL1        0.2061
     39 C          68.7690   93.0550   15.4982 C.3     1  UNL1        0.2526
     40 O          68.4488   92.2992   14.2427 O.3     1  UNL1       -0.4682
     41 O          64.6899   92.3115   10.6551 O.3     1  UNL1       -0.4682
     42 C          63.5039   91.5759   10.1052 C.3     1  UNL1        0.2526
     43 O          67.5482   92.7986   11.4250 O.3     1  UNL1       -0.4654
     44 C          68.0259   91.8795   10.3401 C.3     1  UNL1        0.2528
@<TRIPOS>BOND
     1    39    40    1
     2    40    33    1
     3    33    34   ar
     4    34    35   ar
     5    35    31    1
     6    31    24    1
     7    24    25   ar
     8    25    26   ar
     9    26    27   ar
    10    27    28    1
    11    27    29   ar
    12    29     1    1
    13     1     3    1
    14     3     4   ar
    15     4     5   ar
    16     5     6   ar
    17     6     7   ar
    18     7     8   ar
    19     7     9    1
    20     9    16    1
    21    16    17    1
    22    17    18    1
    23    18    19    2
    24    18    20    1
    25    18    21    1
    26     9    10   am
    27    10    11    2
    28    10    12    1
    29    12    13    1
    30    12    14    1
    31    12    15    1
    32    29    30   ar
    33    35    36   ar
    34    36    37   ar
    35    37    41    1
    36    41    42    1
    37    37    38   ar
    38    38    43    1
    39    43    44    1
    40    38    33   ar
    41    30    24   ar
    42     8     3   ar
    43    15     6    1
    44    31    32    1
    45     1     2    1
    46    20    22    1
    47    21    23    1
@<TRIPOS>MOLECULE
*****
 44 47 0 0 0
SMALL
GASTEIGER

@<TRIPOS>ATOM
      1 N          64.1944   85.8442   14.1005 N.pl3   1  UNL1       -0.2814
      2 H          64.9424   85.2242   14.2595 H       1  UNL1        0.1551
      3 C          63.4263   85.7784   12.8138 C.ar    1  UNL1        0.1349
      4 C          63.3741   84.4968   12.0362 C.ar    1  UNL1        0.0377
      5 C          62.6060   84.4310   10.7495 C.ar    1  UNL1        0.0427
      6 C          61.8900   85.6468   10.2404 C.ar    1  UNL1        0.1708
      7 C          61.9421   86.9285   11.0181 C.ar    1  UNL1        0.1749
      8 N          62.7102   86.9943   12.3048 N.ar    1  UNL1       -0.2123
      9 N          61.2261   88.1443   10.5090 N.am    1  UNL1       -0.2114
     10 C          60.4579   88.0785    9.2223 C.2     1  UNL1        0.2685
     11 O          59.7419   89.2943    8.7133 O.2     1  UNL1       -0.2707
     12 C          60.4058   86.7969    8.4447 C.3     1  UNL1        0.2014
     13 C          60.0637   85.8196    7.3593 C.3     1  UNL1        0.0532
     14 C          59.5710   87.6732    7.5587 C.3     1  UNL1        0.0532
     15 O          61.1218   85.5810    8.9537 O.3     1  UNL1       -0.4711
     16 C          61.2783   89.4258   11.2867 C.3     1  UNL1        0.2576
     17 O          60.4733   89.5736   12.5438 O.3     1  UNL1       -0.2512
     18 P          58.9757   89.5132   12.4869 P.3     1  UNL1        0.4746
     19 O          58.9554   90.7766   11.6788 O.2     1  UNL1       -0.2274
     20 O          58.9960   88.2497   13.2951 O.3     1  UNL1       -0.3026
     21 O          57.4779   89.4527   12.4300 O.3     1  UNL1       -0.3026
     22 H          59.9135   88.0142   13.5040 H       1  UNL1        0.2220
     23 H          57.1427   90.2101   11.9250 H       1  UNL1        0.2220
     24 C          63.5351   89.3303   15.8789 C.ar    1  UNL1        0.2220
     25 N          63.0800   88.8757   17.2339 N.ar    1  UNL1       -0.2096
     26 C          62.9963   87.4106   17.5445 C.ar    1  UNL1        0.1343
     27 C          63.3678   86.4001   16.5001 C.ar    1  UNL1        0.1908
     28 F          63.2841   84.9350   16.8107 F       1  UNL1       -0.1996
     29 C          63.8229   86.8547   15.1450 C.ar    1  UNL1        0.1654
     30 N          63.9066   88.3198   14.8344 N.ar    1  UNL1       -0.1961
     31 N          63.6188   90.7954   15.5683 N.pl3   1  UNL1       -0.2823
     32 H          63.0518   91.4353   16.0565 H       1  UNL1        0.1551
     33 C          65.0476   91.9206   12.0408 C.ar    1  UNL1        0.1767
     34 C          64.1001   91.4304   13.0954 C.ar    1  UNL1        0.0549
     35 C          64.5663   91.2856   14.5137 C.ar    1  UNL1        0.0567
     36 C          65.9799   91.6310   14.8776 C.ar    1  UNL1        0.0549
     37 C          66.9273   92.1212   13.8231 C.ar    1  UNL1        0.1767
     38 C          66.4612   92.2660   12.4047 C.ar    1  UNL1        0.2061
     39 C          63.2817   91.4514   10.1938 C.3     1  UNL1        0.2526
     40 O          64.5815   92.0653   10.6225 O.3     1  UNL1       -0.4682
     41 O          68.3410   92.4666   14.1869 O.3     1  UNL1       -0.4682
     42 C          68.6242   93.2506   15.4341 C.3     1  UNL1        0.2526
     43 O          67.4087   92.7562   11.3502 O.3     1  UNL1       -0.4654
     44 C          67.1182   94.0309   10.6149 C.3     1  UNL1        0.2528
@<TRIPOS>BOND
     1    39    40    1
     2    40    33    1
     3    33    34   ar
     4    34    35   ar
     5    35    31    1
     6    31    24    1
     7    24    25   ar
     8    25    26   ar
     9    26    27   ar
    10    27    28    1
    11    27    29   ar
    12    29     1    1
    13     1     3    1
    14     3     4   ar
    15     4     5   ar
    16     5     6   ar
    17     6     7   ar
    18     7     8   ar
    19     7     9    1
    20     9    16    1
    21    16    17    1
    22    17    18    1
    23    18    19    2
    24    18    20    1
    25    18    21    1
    26     9    10   am
    27    10    11    2
    28    10    12    1
    29    12    13    1
    30    12    14    1
    31    12    15    1
    32    29    30   ar
    33    35    36   ar
    34    36    37   ar
    35    37    41    1
    36    41    42    1
    37    37    38   ar
    38    38    43    1
    39    43    44    1
    40    38    33   ar
    41    30    24   ar
    42     8     3   ar
    43    15     6    1
    44    31    32    1
    45     1     2    1
    46    20    22    1
    47    21    23    1
@<TRIPOS>MOLECULE
*****
 44 47 0 0 0
SMALL
GASTEIGER

@<TRIPOS>ATOM
      1 N          61.1769   90.0154    9.4498 N.pl3   1  UNL1       -0.2814
      2 H          60.7547   90.7479    8.9454 H       1  UNL1        0.1551
      3 C          61.9935   90.3190   10.6709 C.ar    1  UNL1        0.1349
      4 C          61.6181   89.7176   11.9927 C.ar    1  UNL1        0.0377
      5 C          62.4347   90.0212   13.2138 C.ar    1  UNL1        0.0427
      6 C          63.6267   90.9262   13.1130 C.ar    1  UNL1        0.1708
      7 C          64.0022   91.5276   11.7911 C.ar    1  UNL1        0.1749
      8 N          63.1856   91.2240   10.5700 N.ar    1  UNL1       -0.2123
      9 N          65.1941   92.4325   11.6902 N.am    1  UNL1       -0.2114
     10 C          66.0107   92.7361   12.9113 C.2     1  UNL1        0.2685
     11 O          67.2027   93.6410   12.8105 O.2     1  UNL1       -0.2707
     12 C          65.6353   92.1347   14.2332 C.3     1  UNL1        0.2014
     13 C          65.6792   91.8083   15.6966 C.3     1  UNL1        0.0532
     14 C          66.8426   92.9263   14.6407 C.3     1  UNL1        0.0532
     15 O          64.4433   91.2297   14.3341 O.3     1  UNL1       -0.4711
     16 C          65.5695   93.0338   10.3684 C.3     1  UNL1        0.2576
     17 O          67.0121   93.1197    9.9660 O.3     1  UNL1       -0.2512
     18 P          67.5339   94.3615    9.3060 P.3     1  UNL1        0.4746
     19 O          67.9186   93.5583    8.0990 O.2     1  UNL1       -0.2274
     20 O          67.1492   95.1647   10.5130 O.3     1  UNL1       -0.3026
     21 O          68.0559   95.6033    8.6460 O.3     1  UNL1       -0.3026
     22 H          66.7481   94.5807   11.1756 H       1  UNL1        0.2220
     23 H          68.4029   95.3812    7.7678 H       1  UNL1        0.2220
     24 C          61.8255   86.1315    8.9547 C.ar    1  UNL1        0.2220
     25 N          60.6569   85.7567    8.0923 N.ar    1  UNL1       -0.2096
     26 C          59.6617   86.8014    7.6823 C.ar    1  UNL1        0.1343
     27 C          59.8350   88.2209    8.1348 C.ar    1  UNL1        0.1908
     28 F          58.8397   89.2656    7.7249 F       1  UNL1       -0.1996
     29 C          61.0036   88.5958    8.9973 C.ar    1  UNL1        0.1654
     30 N          61.9989   87.5512    9.4072 N.ar    1  UNL1       -0.1961
     31 N          62.8208   85.0869    9.3646 N.pl3   1  UNL1       -0.2823
     32 H          63.3775   84.6434    8.6844 H       1  UNL1        0.1551
     33 C          63.0281   82.9113   12.6774 C.ar    1  UNL1        0.1767
     34 C          62.8810   83.2804   11.2309 C.ar    1  UNL1        0.0549
     35 C          62.9680   84.7178   10.8111 C.ar    1  UNL1        0.0567
     36 C          63.2021   85.7861   11.8376 C.ar    1  UNL1        0.0549
     37 C          63.3493   85.4171   13.2840 C.ar    1  UNL1        0.1767
     38 C          63.2623   83.9796   13.7040 C.ar    1  UNL1        0.2061
     39 C          61.6579   80.9312   13.6530 C.3     1  UNL1        0.2526
     40 O          62.9412   81.4739   13.0973 O.3     1  UNL1       -0.4682
     41 O          63.5834   86.4855   14.3106 O.3     1  UNL1       -0.4682
     42 C          64.9242   86.6095   14.9715 C.3     1  UNL1        0.2526
     43 O          63.4094   83.6106   15.1504 O.3     1  UNL1       -0.4654
     44 C          62.4128   84.1061   16.1560 C.3     1  UNL1        0.2528
@<TRIPOS>BOND
     1    39    40    1
     2    40    33    1
     3    33    34   ar
     4    34    35   ar
     5    35    31    1
     6    31    24    1
     7    24    25   ar
     8    25    26   ar
     9    26    27   ar
    10    27    28    1
    11    27    29   ar
    12    29     1    1
    13     1     3    1
    14     3     4   ar
    15     4     5   ar
    16     5     6   ar
    17     6     7   ar
    18     7     8   ar
    19     7     9    1
    20     9    16    1
    21    16    17    1
    22    17    18    1
    23    18    19    2
    24    18    20    1
    25    18    21    1
    26     9    10   am
    27    10    11    2
    28    10    12    1
    29    12    13    1
    30    12    14    1
    31    12    15    1
    32    29    30   ar
    33    35    36   ar
    34    36    37   ar
    35    37    41    1
    36    41    42    1
    37    37    38   ar
    38    38    43    1
    39    43    44    1
    40    38    33   ar
    41    30    24   ar
    42     8     3   ar
    43    15     6    1
    44    31    32    1
    45     1     2    1
    46    20    22    1
    47    21    23    1
@<TRIPOS>MOLECULE
*****
 44 47 0 0 0
SMALL
GASTEIGER

@<TRIPOS>ATOM
      1 N          60.8806   88.6887   10.8953 N.pl3   1  UNL1       -0.2814
      2 H          60.0154   88.7568   11.3602 H       1  UNL1        0.1551
      3 C          61.9606   89.6928   11.1699 C.ar    1  UNL1        0.1349
      4 C          62.4484   90.5892   10.0706 C.ar    1  UNL1        0.0377
      5 C          63.5284   91.5932   10.3452 C.ar    1  UNL1        0.0427
      6 C          64.1206   91.7009   11.7191 C.ar    1  UNL1        0.1708
      7 C          63.6328   90.8045   12.8185 C.ar    1  UNL1        0.1749
      8 N          62.5528   89.8004   12.5439 N.ar    1  UNL1       -0.2123
      9 N          64.2250   90.9122   14.1924 N.am    1  UNL1       -0.2114
     10 C          65.3051   91.9163   14.4670 C.2     1  UNL1        0.2685
     11 O          65.8973   92.0240   15.8409 O.2     1  UNL1       -0.2707
     12 C          65.7928   92.8127   13.3677 C.3     1  UNL1        0.2014
     13 C          66.5815   93.8746   12.6601 C.3     1  UNL1        0.0532
     14 C          66.6590   93.2892   14.4958 C.3     1  UNL1        0.0532
     15 O          65.2006   92.7050   11.9937 O.3     1  UNL1       -0.4711
     16 C          63.7373   90.0158   15.2917 C.3     1  UNL1        0.2576
     17 O          64.1419   88.5716   15.3170 O.3     1  UNL1       -0.2512
     18 P          63.3675   87.5902   16.1459 P.3     1  UNL1        0.4746
     19 O          62.9932   88.6884   17.0965 O.2     1  UNL1       -0.2274
     20 O          63.7418   86.4919   15.1953 O.3     1  UNL1       -0.3026
     21 O          62.5931   86.6087   16.9749 O.3     1  UNL1       -0.3026
     22 H          64.2947   86.8536   14.4850 H       1  UNL1        0.2220
     23 H          62.1980   87.0668   17.7331 H       1  UNL1        0.2220
     24 C          62.4633   85.4878    9.1635 C.ar    1  UNL1        0.2220
     25 N          61.5949   85.3654    7.9466 N.ar    1  UNL1       -0.2096
     26 C          60.4884   86.3507    7.7125 C.ar    1  UNL1        0.1343
     27 C          60.2503   87.4585    8.6954 C.ar    1  UNL1        0.1908
     28 F          59.1438   88.4438    8.4614 F       1  UNL1       -0.1996
     29 C          61.1187   87.5809    9.9124 C.ar    1  UNL1        0.1654
     30 N          62.2252   86.5956   10.1464 N.ar    1  UNL1       -0.1961
     31 N          63.5698   84.5024    9.3975 N.pl3   1  UNL1       -0.2823
     32 H          64.3560   84.4952    8.8050 H       1  UNL1        0.1551
     33 C          63.1260   81.1024   11.3958 C.ar    1  UNL1        0.1767
     34 C          63.2174   82.0768   10.2590 C.ar    1  UNL1        0.0549
     35 C          63.4783   83.5280   10.5343 C.ar    1  UNL1        0.0567
     36 C          63.6478   84.0049   11.9463 C.ar    1  UNL1        0.0549
     37 C          63.5564   83.0306   13.0831 C.ar    1  UNL1        0.1767
     38 C          63.2955   81.5793   12.8078 C.ar    1  UNL1        0.2061
     39 C          62.8616   79.1444    9.7087 C.3     1  UNL1        0.2526
     40 O          62.8651   79.6511   11.1205 O.3     1  UNL1       -0.4682
     41 O          63.7259   83.5075   14.4951 O.3     1  UNL1       -0.4682
     42 C          62.5630   83.4757   15.4421 C.3     1  UNL1        0.2526
     43 O          63.2041   80.6049   13.9446 O.3     1  UNL1       -0.4654
     44 C          61.9218   79.8701   14.2013 C.3     1  UNL1        0.2528
@<TRIPOS>BOND
     1    39    40    1
     2    40    33    1
     3    33    34   ar
     4    34    35   ar
     5    35    31    1
     6    31    24    1
     7    24    25   ar
     8    25    26   ar
     9    26    27   ar
    10    27    28    1
    11    27    29   ar
    12    29     1    1
    13     1     3    1
    14     3     4   ar
    15     4     5   ar
    16     5     6   ar
    17     6     7   ar
    18     7     8   ar
    19     7     9    1
    20     9    16    1
    21    16    17    1
    22    17    18    1
    23    18    19    2
    24    18    20    1
    25    18    21    1
    26     9    10   am
    27    10    11    2
    28    10    12    1
    29    12    13    1
    30    12    14    1
    31    12    15    1
    32    29    30   ar
    33    35    36   ar
    34    36    37   ar
    35    37    41    1
    36    41    42    1
    37    37    38   ar
    38    38    43    1
    39    43    44    1
    40    38    33   ar
    41    30    24   ar
    42     8     3   ar
    43    15     6    1
    44    31    32    1
    45     1     2    1
    46    20    22    1
    47    21    23    1
@<TRIPOS>MOLECULE
*****
 44 47 0 0 0
SMALL
GASTEIGER

@<TRIPOS>ATOM
      1 N          60.8009   88.7011   10.6362 N.pl3   1  UNL1       -0.2814
      2 H          59.8967   88.8262   11.0050 H       1  UNL1        0.1551
      3 C          61.8884   89.6792   10.9687 C.ar    1  UNL1        0.1349
      4 C          62.4216   90.5968    9.9087 C.ar    1  UNL1        0.0377
      5 C          63.5091   91.5750   10.2412 C.ar    1  UNL1        0.0427
      6 C          64.0633   91.6356   11.6337 C.ar    1  UNL1        0.1708
      7 C          63.5301   90.7180   12.6938 C.ar    1  UNL1        0.1749
      8 N          62.4426   89.7398   12.3613 N.ar    1  UNL1       -0.2123
      9 N          64.0843   90.7786   14.0863 N.am    1  UNL1       -0.2114
     10 C          65.1718   91.7568   14.4187 C.2     1  UNL1        0.2685
     11 O          65.7261   91.8174   15.8112 O.2     1  UNL1       -0.2707
     12 C          65.7051   92.6743   13.3587 C.3     1  UNL1        0.2014
     13 C          66.5304   93.7417   12.7032 C.3     1  UNL1        0.0532
     14 C          66.5460   93.1057   14.5235 C.3     1  UNL1        0.0532
     15 O          65.1508   92.6138   11.9661 O.3     1  UNL1       -0.4711
     16 C          63.5511   89.8610   15.1463 C.3     1  UNL1        0.2576
     17 O          64.0496   88.4491   15.2362 O.3     1  UNL1       -0.2512
     18 P          63.3395   87.4572   16.1090 P.3     1  UNL1        0.4746
     19 O          62.8107   88.5786   16.9532 O.2     1  UNL1       -0.2274
     20 O          63.8683   86.3358   15.2648 O.3     1  UNL1       -0.3026
     21 O          62.6294   86.4652   16.9819 O.3     1  UNL1       -0.3026
     22 H          64.4152   86.6988   14.5506 H       1  UNL1        0.2220
     23 H          62.1540   86.9352   17.6848 H       1  UNL1        0.2220
     24 C          62.5252   85.4453    9.1608 C.ar    1  UNL1        0.2220
     25 N          61.6714   85.1948    7.9533 N.ar    1  UNL1       -0.2096
     26 C          60.5274   86.1131    7.6400 C.ar    1  UNL1        0.1343
     27 C          60.2372   87.2818    8.5343 C.ar    1  UNL1        0.1908
     28 F          59.0933   88.2001    8.2210 F       1  UNL1       -0.1996
     29 C          61.0910   87.5323    9.7419 C.ar    1  UNL1        0.1654
     30 N          62.2350   86.6141   10.0552 N.ar    1  UNL1       -0.1961
     31 N          63.6691   84.5270    9.4741 N.pl3   1  UNL1       -0.2823
     32 H          64.5011   84.5808    8.9505 H       1  UNL1        0.1551
     33 C          63.5914   82.9635   13.1210 C.ar    1  UNL1        0.1767
     34 C          63.7151   83.9637   12.0100 C.ar    1  UNL1        0.0549
     35 C          63.5454   83.5268   10.5851 C.ar    1  UNL1        0.0567
     36 C          63.2520   82.0896   10.2713 C.ar    1  UNL1        0.0549
     37 C          63.1283   81.0895   11.3822 C.ar    1  UNL1        0.1767
     38 C          63.2980   81.5264   12.8071 C.ar    1  UNL1        0.2061
     39 C          62.5797   83.4207   15.4699 C.3     1  UNL1        0.2526
     40 O          63.7611   83.4005   14.5459 O.3     1  UNL1       -0.4682
     41 O          62.8349   79.6523   11.0683 O.3     1  UNL1       -0.4682
     42 C          62.8530   79.1765    9.6458 C.3     1  UNL1        0.2526
     43 O          63.1743   80.5262   13.9181 O.3     1  UNL1       -0.4654
     44 C          61.8423   79.9095   14.2272 C.3     1  UNL1        0.2528
@<TRIPOS>BOND
     1    39    40    1
     2    40    33    1
     3    33    34   ar
     4    34    35   ar
     5    35    31    1
     6    31    24    1
     7    24    25   ar
     8    25    26   ar
     9    26    27   ar
    10    27    28    1
    11    27    29   ar
    12    29     1    1
    13     1     3    1
    14     3     4   ar
    15     4     5   ar
    16     5     6   ar
    17     6     7   ar
    18     7     8   ar
    19     7     9    1
    20     9    16    1
    21    16    17    1
    22    17    18    1
    23    18    19    2
    24    18    20    1
    25    18    21    1
    26     9    10   am
    27    10    11    2
    28    10    12    1
    29    12    13    1
    30    12    14    1
    31    12    15    1
    32    29    30   ar
    33    35    36   ar
    34    36    37   ar
    35    37    41    1
    36    41    42    1
    37    37    38   ar
    38    38    43    1
    39    43    44    1
    40    38    33   ar
    41    30    24   ar
    42     8     3   ar
    43    15     6    1
    44    31    32    1
    45     1     2    1
    46    20    22    1
    47    21    23    1
@<TRIPOS>MOLECULE
*****
 44 47 0 0 0
SMALL
GASTEIGER

@<TRIPOS>ATOM
      1 N          63.6507   88.0484   15.7702 N.pl3   1  UNL1       -0.2814
      2 H          63.5820   88.3328   16.7103 H       1  UNL1        0.1551
      3 C          63.9454   89.0582   14.7009 C.ar    1  UNL1        0.1349
      4 C          63.5033   88.8069   13.2897 C.ar    1  UNL1        0.0377
      5 C          63.7980   89.8167   12.2204 C.ar    1  UNL1        0.0427
      6 C          64.5348   91.0777   12.5622 C.ar    1  UNL1        0.1708
      7 C          64.9770   91.3290   13.9734 C.ar    1  UNL1        0.1749
      8 N          64.6822   90.3193   15.0427 N.ar    1  UNL1       -0.2123
      9 N          65.7138   92.5901   14.3152 N.am    1  UNL1       -0.2114
     10 C          66.0085   93.5998   13.2458 C.2     1  UNL1        0.2685
     11 O          66.7453   94.8609   13.5876 O.2     1  UNL1       -0.2707
     12 C          65.5664   93.3486   11.8347 C.3     1  UNL1        0.2014
     13 C          65.3546   93.5609   10.3649 C.3     1  UNL1        0.0532
     14 C          66.2296   94.6833   11.6660 C.3     1  UNL1        0.0532
     15 O          64.8295   92.0875   11.4928 O.3     1  UNL1       -0.4711
     16 C          66.1559   92.8413   15.7263 C.3     1  UNL1        0.2576
     17 O          67.5067   92.3759   16.1832 O.3     1  UNL1       -0.2512
     18 P          68.6863   92.4780   15.2623 P.3     1  UNL1        0.4746
     19 O          69.0734   93.7782   15.9022 O.2     1  UNL1       -0.2274
     20 O          68.2991   91.1778   14.6223 O.3     1  UNL1       -0.3026
     21 O          69.8659   92.5801   14.3413 O.3     1  UNL1       -0.3026
     22 H          67.4965   90.8352   15.0459 H       1  UNL1        0.2220
     23 H          70.3561   93.3949   14.5329 H       1  UNL1        0.2220
     24 C          63.4241   84.7210   13.6192 C.ar    1  UNL1        0.2220
     25 N          63.0804   83.7195   14.6816 N.ar    1  UNL1       -0.2096
     26 C          62.9268   84.1609   16.1069 C.ar    1  UNL1        0.1343
     27 C          63.1168   85.6039   16.4698 C.ar    1  UNL1        0.1908
     28 F          62.9632   86.0453   17.8951 F       1  UNL1       -0.1996
     29 C          63.4606   86.6055   15.4073 C.ar    1  UNL1        0.1654
     30 N          63.6142   86.1640   13.9820 N.ar    1  UNL1       -0.1961
     31 N          63.5777   84.2796   12.1938 N.pl3   1  UNL1       -0.2823
     32 H          64.1744   83.5283   11.9728 H       1  UNL1        0.1551
     33 C          61.0076   86.6890   10.3663 C.ar    1  UNL1        0.1767
     34 C          61.7631   85.9858   11.4548 C.ar    1  UNL1        0.0549
     35 C          62.8222   84.9828   11.1053 C.ar    1  UNL1        0.0567
     36 C          63.1259   84.6830    9.6673 C.ar    1  UNL1        0.0549
     37 C          62.3705   85.3861    8.5788 C.ar    1  UNL1        0.1767
     38 C          61.3113   86.3891    8.9283 C.ar    1  UNL1        0.2061
     39 C          60.2950   89.1487   10.8047 C.3     1  UNL1        0.2526
     40 O          59.9484   87.6920   10.7158 O.3     1  UNL1       -0.4682
     41 O          62.6742   85.0863    7.1408 O.3     1  UNL1       -0.4682
     42 C          61.6577   84.3837    6.2903 C.3     1  UNL1        0.2526
     43 O          60.5558   87.0923    7.8398 O.3     1  UNL1       -0.4654
     44 C          59.1061   86.7820    7.6120 C.3     1  UNL1        0.2528
@<TRIPOS>BOND
     1    39    40    1
     2    40    33    1
     3    33    34   ar
     4    34    35   ar
     5    35    31    1
     6    31    24    1
     7    24    25   ar
     8    25    26   ar
     9    26    27   ar
    10    27    28    1
    11    27    29   ar
    12    29     1    1
    13     1     3    1
    14     3     4   ar
    15     4     5   ar
    16     5     6   ar
    17     6     7   ar
    18     7     8   ar
    19     7     9    1
    20     9    16    1
    21    16    17    1
    22    17    18    1
    23    18    19    2
    24    18    20    1
    25    18    21    1
    26     9    10   am
    27    10    11    2
    28    10    12    1
    29    12    13    1
    30    12    14    1
    31    12    15    1
    32    29    30   ar
    33    35    36   ar
    34    36    37   ar
    35    37    41    1
    36    41    42    1
    37    37    38   ar
    38    38    43    1
    39    43    44    1
    40    38    33   ar
    41    30    24   ar
    42     8     3   ar
    43    15     6    1
    44    31    32    1
    45     1     2    1
    46    20    22    1
    47    21    23    1
@<TRIPOS>MOLECULE
*****
 44 47 0 0 0
SMALL
GASTEIGER

@<TRIPOS>ATOM
      1 N          63.6704   88.0832   15.7404 N.pl3   1  UNL1       -0.2814
      2 H          63.5922   88.3685   16.6794 H       1  UNL1        0.1551
      3 C          63.9539   89.0953   14.6702 C.ar    1  UNL1        0.1349
      4 C          63.4958   88.8477   13.2635 C.ar    1  UNL1        0.0377
      5 C          63.7793   89.8598   12.1933 C.ar    1  UNL1        0.0427
      6 C          64.5209   91.1194   12.5298 C.ar    1  UNL1        0.1708
      7 C          64.9790   91.3671   13.9366 C.ar    1  UNL1        0.1749
      8 N          64.6955   90.3550   15.0067 N.ar    1  UNL1       -0.2123
      9 N          65.7206   92.6267   14.2731 N.am    1  UNL1       -0.2114
     10 C          66.0042   93.6388   13.2029 C.2     1  UNL1        0.2685
     11 O          66.7458   94.8984   13.5394 O.2     1  UNL1       -0.2707
     12 C          65.5461   93.3912   11.7962 C.3     1  UNL1        0.2014
     13 C          65.3181   93.6072   10.3294 C.3     1  UNL1        0.0532
     14 C          66.2085   94.7259   11.6232 C.3     1  UNL1        0.0532
     15 O          64.8045   92.1315   11.4596 O.3     1  UNL1       -0.4711
     16 C          66.1787   92.8743   15.6798 C.3     1  UNL1        0.2576
     17 O          67.5167   92.3696   16.1326 O.3     1  UNL1       -0.2512
     18 P          68.7080   92.4875   15.2288 P.3     1  UNL1        0.4746
     19 O          69.0861   93.7769   15.8953 O.2     1  UNL1       -0.2274
     20 O          68.3299   91.1981   14.5622 O.3     1  UNL1       -0.3026
     21 O          69.8993   92.6055   14.3249 O.3     1  UNL1       -0.3026
     22 H          67.5221   90.8482   14.9696 H       1  UNL1        0.2220
     23 H          70.3866   93.4171   14.5364 H       1  UNL1        0.2220
     24 C          63.4719   84.7534   13.5902 C.ar    1  UNL1        0.2220
     25 N          63.1771   83.7430   14.6589 N.ar    1  UNL1       -0.2096
     26 C          63.0467   84.1793   16.0881 C.ar    1  UNL1        0.1343
     27 C          63.2111   85.6260   16.4486 C.ar    1  UNL1        0.1908
     28 F          63.0807   86.0624   17.8778 F       1  UNL1       -0.1996
     29 C          63.5059   86.6365   15.3799 C.ar    1  UNL1        0.1654
     30 N          63.6363   86.2002   13.9507 N.ar    1  UNL1       -0.1961
     31 N          63.6023   84.3171   12.1610 N.pl3   1  UNL1       -0.2823
     32 H          64.1968   83.5679   11.9273 H       1  UNL1        0.1551
     33 C          62.3341   85.4360    8.5707 C.ar    1  UNL1        0.1767
     34 C          63.1095   84.7308    9.6438 C.ar    1  UNL1        0.0549
     35 C          62.8269   85.0222   11.0878 C.ar    1  UNL1        0.0567
     36 C          61.7688   86.0186   11.4588 C.ar    1  UNL1        0.0549
     37 C          60.9934   86.7237   10.3857 C.ar    1  UNL1        0.1767
     38 C          61.2760   86.4324    8.9416 C.ar    1  UNL1        0.2061
     39 C          61.6260   84.3688    6.3102 C.3     1  UNL1        0.2526
     40 O          62.6167   85.1446    7.1267 O.3     1  UNL1       -0.4682
     41 O          59.9353   87.7202   10.7566 O.3     1  UNL1       -0.4682
     42 C          60.2517   89.1865   10.7532 C.3     1  UNL1        0.2526
     43 O          60.5006   87.1375    7.8686 O.3     1  UNL1       -0.4654
     44 C          59.0664   86.7759    7.6190 C.3     1  UNL1        0.2528
@<TRIPOS>BOND
     1    39    40    1
     2    40    33    1
     3    33    34   ar
     4    34    35   ar
     5    35    31    1
     6    31    24    1
     7    24    25   ar
     8    25    26   ar
     9    26    27   ar
    10    27    28    1
    11    27    29   ar
    12    29     1    1
    13     1     3    1
    14     3     4   ar
    15     4     5   ar
    16     5     6   ar
    17     6     7   ar
    18     7     8   ar
    19     7     9    1
    20     9    16    1
    21    16    17    1
    22    17    18    1
    23    18    19    2
    24    18    20    1
    25    18    21    1
    26     9    10   am
    27    10    11    2
    28    10    12    1
    29    12    13    1
    30    12    14    1
    31    12    15    1
    32    29    30   ar
    33    35    36   ar
    34    36    37   ar
    35    37    41    1
    36    41    42    1
    37    37    38   ar
    38    38    43    1
    39    43    44    1
    40    38    33   ar
    41    30    24   ar
    42     8     3   ar
    43    15     6    1
    44    31    32    1
    45     1     2    1
    46    20    22    1
    47    21    23    1
