@<TRIPOS>MOLECULE
*****
 33 37 0 0 0
SMALL
GASTEIGER

@<TRIPOS>ATOM
      1 C          63.7801   89.1627   13.2525 C.ar    1  UNL1        0.0957
      2 C          63.8573   89.0681   14.7475 C.ar    1  UNL1        0.1191
      3 N          64.5098   90.1648   15.5358 N.ar    1  UNL1       -0.2223
      4 C          65.0851   91.3563   14.8290 C.ar    1  UNL1        0.1784
      5 N          65.7831   92.5835   15.3358 N.ar    1  UNL1       -0.2236
      6 C          66.1372   93.4366   14.1540 C.ar    1  UNL1        0.1066
      7 C          65.6581   92.7367   12.9168 C.ar    1  UNL1        0.0910
      8 C          65.0079   91.4510   13.3340 C.ar    1  UNL1        0.0988
      9 N          64.3554   90.3542   12.5457 N.ar    1  UNL1       -0.3481
     10 H          64.3047   90.4164   11.5645 H       1  UNL1        0.1661
     11 C          62.3167   84.3784   11.5645 C.3     1  UNL1        0.1537
     12 N          62.4550   85.8669   11.6884 N.ar    1  UNL1       -0.2487
     13 N          63.2804   86.5938   12.7083 N.ar    1  UNL1       -0.1677
     14 C          63.1276   88.0659   12.4642 C.ar    1  UNL1        0.1193
     15 C          62.2079   88.2488   11.2935 C.ar    1  UNL1        0.0382
     16 C          61.6952   89.4772   10.6021 C.ar    1  UNL1        0.0054
     17 C          60.7669   89.3466    9.4313 C.ar    1  UNL1        0.0298
     18 C          60.3511   87.9875    8.9517 C.ar    1  UNL1        0.1416
     19 F          59.4227   87.8568    7.7808 F       1  UNL1       -0.2041
     20 C          60.8638   86.7590    9.6431 C.ar    1  UNL1        0.0484
     21 C          61.7922   86.8896   10.8140 C.ar    1  UNL1        0.0817
     22 C          65.8038   93.2350   11.5095 C.2     1  UNL1        0.2488
     23 O          64.8880   92.7272   10.4355 O.2     1  UNL1       -0.2700
     24 N          66.8651   94.2412   11.1762 N.am    1  UNL1       -0.3038
     25 H          67.4661   94.5746   11.8811 H       1  UNL1        0.1496
     26 C          67.0107   94.7395    9.7689 C.3     1  UNL1        0.0597
     27 C          68.0050   93.6166    9.7518 C.3     1  UNL1        0.0197
     28 C          65.9657   95.6894   10.2747 C.3     1  UNL1        0.0351
     29 C          65.4117   96.7476    9.3674 C.3     1  UNL1        0.0702
     30 N          65.9026   96.8559    7.9541 N.3     1  UNL1       -0.2974
     31 C          66.9475   95.9060    7.4483 C.3     1  UNL1        0.0702
     32 C          67.5016   94.8478    8.3556 C.3     1  UNL1        0.0351
     33 H          66.2823   97.7964    7.8455 H       1  UNL1        0.1232
@<TRIPOS>BOND
     1    11    12    1
     2    12    13   ar
     3    13    14   ar
     4    14     1    1
     5     1     2   ar
     6     2     3   ar
     7     3     4   ar
     8     4     5   ar
     9     5     6   ar
    10     6     7   ar
    11     7    22    1
    12    22    23    2
    13    22    24   am
    14    24    26    1
    15    26    27    1
    16    26    28    1
    17    28    29    1
    18    29    30    1
    19    30    31    1
    20    31    32    1
    21     7     8   ar
    22     8     9   ar
    23    14    15   ar
    24    15    16   ar
    25    16    17   ar
    26    17    18   ar
    27    18    19    1
    28    18    20   ar
    29    20    21   ar
    30    21    12   ar
    31     9     1   ar
    32    21    15   ar
    33     8     4    1
    34    32    26    1
    35    24    25    1
    36    30    33    1
    37     9    10    1
@<TRIPOS>MOLECULE
*****
 33 37 0 0 0
SMALL
GASTEIGER

@<TRIPOS>ATOM
      1 C          63.7349   84.9389   14.3112 C.ar    1  UNL1        0.0957
      2 C          64.3518   83.6089   14.6279 C.ar    1  UNL1        0.1191
      3 N          64.5881   82.6117   13.5325 N.ar    1  UNL1       -0.2223
      4 C          64.2074   82.9446   12.1203 C.ar    1  UNL1        0.1784
      5 N          64.3187   82.1690   10.8413 N.ar    1  UNL1       -0.2236
      6 C          63.7705   83.0195    9.7341 C.ar    1  UNL1        0.1066
      7 C          63.3204   84.3210   10.3288 C.ar    1  UNL1        0.0910
      8 C          63.5904   84.2747   11.8036 C.ar    1  UNL1        0.0988
      9 N          63.3542   85.2718   12.8990 N.ar    1  UNL1       -0.3481
     10 H          62.9492   86.1447   12.6911 H       1  UNL1        0.1661
     11 C          62.5138   87.0682   18.9862 C.3     1  UNL1        0.1537
     12 N          62.9374   86.9147   17.5554 N.ar    1  UNL1       -0.2487
     13 N          63.0398   85.6229   16.8000 N.ar    1  UNL1       -0.1677
     14 C          63.4987   85.9360   15.4066 C.ar    1  UNL1        0.1193
     15 C          63.6798   87.4213   15.3009 C.ar    1  UNL1        0.0382
     16 C          64.1157   88.3010   14.1670 C.ar    1  UNL1        0.0054
     17 C          64.2048   89.7857   14.3611 C.ar    1  UNL1        0.0298
     18 C          63.8579   90.3906   15.6892 C.ar    1  UNL1        0.1416
     19 F          63.9470   91.8754   15.8833 F       1  UNL1       -0.2041
     20 C          63.4219   89.5108   16.8231 C.ar    1  UNL1        0.0484
     21 C          63.3329   88.0262   16.6290 C.ar    1  UNL1        0.0817
     22 C          62.7078   85.4674    9.5801 C.2     1  UNL1        0.2488
     23 O          63.1782   85.7948    8.1939 O.2     1  UNL1       -0.2700
     24 N          61.6250   86.2865   10.2177 N.am    1  UNL1       -0.3038
     25 H          61.3162   86.0716   11.1275 H       1  UNL1        0.1496
     26 C          61.0124   87.4329    9.4690 C.3     1  UNL1        0.0597
     27 C          61.9670   88.1794   10.3531 C.3     1  UNL1        0.0197
     28 C          60.2706   86.2882    8.8449 C.3     1  UNL1        0.0351
     29 C          59.2478   86.5492    7.7793 C.3     1  UNL1        0.0702
     30 N          58.9668   87.9549    7.3376 N.3     1  UNL1       -0.2974
     31 C          59.7086   89.0996    7.9617 C.3     1  UNL1        0.0702
     32 C          60.7314   88.8386    9.0274 C.3     1  UNL1        0.0351
     33 H          57.9742   88.1225    7.5024 H       1  UNL1        0.1232
@<TRIPOS>BOND
     1    11    12    1
     2    12    13   ar
     3    13    14   ar
     4    14     1    1
     5     1     2   ar
     6     2     3   ar
     7     3     4   ar
     8     4     5   ar
     9     5     6   ar
    10     6     7   ar
    11     7    22    1
    12    22    23    2
    13    22    24   am
    14    24    26    1
    15    26    27    1
    16    26    28    1
    17    28    29    1
    18    29    30    1
    19    30    31    1
    20    31    32    1
    21     7     8   ar
    22     8     9   ar
    23    14    15   ar
    24    15    16   ar
    25    16    17   ar
    26    17    18   ar
    27    18    19    1
    28    18    20   ar
    29    20    21   ar
    30    21    12   ar
    31     9     1   ar
    32    21    15   ar
    33     8     4    1
    34    32    26    1
    35    24    25    1
    36    30    33    1
    37     9    10    1
@<TRIPOS>MOLECULE
*****
 33 37 0 0 0
SMALL
GASTEIGER

@<TRIPOS>ATOM
      1 C          63.0102   90.0451   11.5452 C.ar    1  UNL1        0.0957
      2 C          62.0762   90.6669   10.5499 C.ar    1  UNL1        0.1191
      3 N          61.1471   89.8017    9.7510 N.ar    1  UNL1       -0.2223
      4 C          61.1520   88.3147    9.9474 C.ar    1  UNL1        0.1784
      5 N          60.3559   87.2153    9.3091 N.ar    1  UNL1       -0.2236
      6 C          60.7979   85.9139    9.9099 C.ar    1  UNL1        0.1066
      7 C          61.8672   86.2090   10.9196 C.ar    1  UNL1        0.0910
      8 C          62.0860   87.6928   10.9428 C.ar    1  UNL1        0.0988
      9 N          63.0152   88.5579   11.7417 N.ar    1  UNL1       -0.3481
     10 H          63.6282   88.1497   12.3950 H       1  UNL1        0.1661
     11 C          65.8519   92.0152   15.5357 C.3     1  UNL1        0.1537
     12 N          65.2455   91.8158   14.1783 N.ar    1  UNL1       -0.2487
     13 N          64.2855   90.7298   13.7924 N.ar    1  UNL1       -0.1677
     14 C          63.9394   90.9102   12.3441 C.ar    1  UNL1        0.1193
     15 C          64.6855   92.1077   11.8349 C.ar    1  UNL1        0.0382
     16 C          64.7342   92.7608   10.4854 C.ar    1  UNL1        0.0054
     17 C          65.5901   93.9735   10.2696 C.ar    1  UNL1        0.0298
     18 C          66.3974   94.5332   11.4032 C.ar    1  UNL1        0.1416
     19 F          67.2533   95.7460   11.1874 F       1  UNL1       -0.2041
     20 C          66.3487   93.8801   12.7527 C.ar    1  UNL1        0.0484
     21 C          65.4928   92.6674   12.9685 C.ar    1  UNL1        0.0817
     22 C          62.5907   85.1978   11.7588 C.2     1  UNL1        0.2488
     23 O          63.2707   85.6236   13.0262 O.2     1  UNL1       -0.2700
     24 N          62.6341   83.7609   11.3306 N.am    1  UNL1       -0.3038
     25 H          62.1878   83.4815   10.4988 H       1  UNL1        0.1496
     26 C          63.3575   82.7499   12.1698 C.3     1  UNL1        0.0597
     27 C          64.4559   83.1377   11.2247 C.3     1  UNL1        0.0197
     28 C          62.0080   82.7131   12.8235 C.3     1  UNL1        0.0351
     29 C          61.7633   81.8001   13.9882 C.3     1  UNL1        0.0702
     30 N          62.8682   80.9236   14.4992 N.3     1  UNL1       -0.2974
     31 C          64.2177   80.9603   13.8455 C.3     1  UNL1        0.0702
     32 C          64.4624   81.8734   12.6808 C.3     1  UNL1        0.0351
     33 H          62.5353   79.9617   14.4336 H       1  UNL1        0.1232
@<TRIPOS>BOND
     1    11    12    1
     2    12    13   ar
     3    13    14   ar
     4    14     1    1
     5     1     2   ar
     6     2     3   ar
     7     3     4   ar
     8     4     5   ar
     9     5     6   ar
    10     6     7   ar
    11     7    22    1
    12    22    23    2
    13    22    24   am
    14    24    26    1
    15    26    27    1
    16    26    28    1
    17    28    29    1
    18    29    30    1
    19    30    31    1
    20    31    32    1
    21     7     8   ar
    22     8     9   ar
    23    14    15   ar
    24    15    16   ar
    25    16    17   ar
    26    17    18   ar
    27    18    19    1
    28    18    20   ar
    29    20    21   ar
    30    21    12   ar
    31     9     1   ar
    32    21    15   ar
    33     8     4    1
    34    32    26    1
    35    24    25    1
    36    30    33    1
    37     9    10    1
@<TRIPOS>MOLECULE
*****
 33 37 0 0 0
SMALL
GASTEIGER

@<TRIPOS>ATOM
      1 C          62.1787   88.7565   10.9118 C.ar    1  UNL1        0.0957
      2 C          62.4858   90.1945   11.2079 C.ar    1  UNL1        0.1191
      3 N          63.2843   90.5558   12.4252 N.ar    1  UNL1       -0.2223
      4 C          63.7759   89.4789   13.3465 C.ar    1  UNL1        0.1784
      5 N          64.5791   89.5304   14.6122 N.ar    1  UNL1       -0.2236
      6 C          64.7685   88.1241   15.0985 C.ar    1  UNL1        0.1066
      7 C          64.0823   87.2035   14.1333 C.ar    1  UNL1        0.0910
      8 C          63.4688   88.0409   13.0505 C.ar    1  UNL1        0.0988
      9 N          62.6703   87.6796   11.8332 N.ar    1  UNL1       -0.3481
     10 H          62.4687   86.7357   11.6390 H       1  UNL1        0.1661
     11 C          58.6531   88.9305    6.9850 C.3     1  UNL1        0.1537
     12 N          59.7596   88.4752    7.8896 N.ar    1  UNL1       -0.2487
     13 N          60.2770   89.2118    9.0895 N.ar    1  UNL1       -0.1677
     14 C          61.3801   88.3952    9.6946 C.ar    1  UNL1        0.1193
     15 C          61.5446   87.1539    8.8687 C.ar    1  UNL1        0.0382
     16 C          62.4769   85.9850    8.9883 C.ar    1  UNL1        0.0054
     17 C          62.4077   84.8655    7.9924 C.ar    1  UNL1        0.0298
     18 C          61.4061   84.9149    6.8769 C.ar    1  UNL1        0.1416
     19 F          61.3369   83.7953    5.8809 F       1  UNL1       -0.2041
     20 C          60.4738   86.0838    6.7572 C.ar    1  UNL1        0.0484
     21 C          60.5430   87.2033    7.7531 C.ar    1  UNL1        0.0817
     22 C          64.0204   85.7081   14.2334 C.2     1  UNL1        0.2488
     23 O          65.2301   84.9349   14.6678 O.2     1  UNL1       -0.2700
     24 N          62.7490   84.9860   13.8991 N.am    1  UNL1       -0.3038
     25 H          61.9550   85.4935   13.6139 H       1  UNL1        0.1496
     26 C          62.6872   83.4907   13.9991 C.3     1  UNL1        0.0597
     27 C          62.4352   83.8582   15.4315 C.3     1  UNL1        0.0197
     28 C          62.9606   83.6424   12.5321 C.3     1  UNL1        0.0351
     29 C          63.0848   82.4265   11.6626 C.3     1  UNL1        0.0702
     30 N          62.9354   81.0587   12.2601 N.3     1  UNL1       -0.2974
     31 C          62.6620   80.9070   13.7271 C.3     1  UNL1        0.0702
     32 C          62.5378   82.1229   14.5967 C.3     1  UNL1        0.0351
     33 H          63.8030   80.5575   12.0689 H       1  UNL1        0.1232
@<TRIPOS>BOND
     1    11    12    1
     2    12    13   ar
     3    13    14   ar
     4    14     1    1
     5     1     2   ar
     6     2     3   ar
     7     3     4   ar
     8     4     5   ar
     9     5     6   ar
    10     6     7   ar
    11     7    22    1
    12    22    23    2
    13    22    24   am
    14    24    26    1
    15    26    27    1
    16    26    28    1
    17    28    29    1
    18    29    30    1
    19    30    31    1
    20    31    32    1
    21     7     8   ar
    22     8     9   ar
    23    14    15   ar
    24    15    16   ar
    25    16    17   ar
    26    17    18   ar
    27    18    19    1
    28    18    20   ar
    29    20    21   ar
    30    21    12   ar
    31     9     1   ar
    32    21    15   ar
    33     8     4    1
    34    32    26    1
    35    24    25    1
    36    30    33    1
    37     9    10    1
@<TRIPOS>MOLECULE
*****
 33 37 0 0 0
SMALL
GASTEIGER

@<TRIPOS>ATOM
      1 C          63.3499   85.1853   13.9069 C.ar    1  UNL1        0.0957
      2 C          64.1779   85.4817   15.1220 C.ar    1  UNL1        0.1191
      3 N          64.6650   86.8775   15.3754 N.ar    1  UNL1       -0.2223
      4 C          64.3241   87.9771   14.4138 C.ar    1  UNL1        0.1784
      5 N          64.6602   89.4388   14.4004 N.ar    1  UNL1       -0.2236
      6 C          64.0400   90.0459   13.1770 C.ar    1  UNL1        0.1066
      7 C          63.3205   88.9593   12.4343 C.ar    1  UNL1        0.0910
      8 C          63.4961   87.6807   13.1987 C.ar    1  UNL1        0.0988
      9 N          63.0089   86.2849   12.9452 N.ar    1  UNL1       -0.3481
     10 H          62.4655   86.0904   12.1477 H       1  UNL1        0.1661
     11 C          60.9230   80.5313   14.4824 C.3     1  UNL1        0.1537
     12 N          61.7472   81.6502   13.9180 N.ar    1  UNL1       -0.2487
     13 N          61.9843   82.9832   14.5636 N.ar    1  UNL1       -0.1677
     14 C          62.8627   83.7894   13.6534 C.ar    1  UNL1        0.1193
     15 C          63.1685   82.9546   12.4453 C.ar    1  UNL1        0.0382
     16 C          63.9857   83.2276   11.2174 C.ar    1  UNL1        0.0054
     17 C          64.1134   82.1785   10.1530 C.ar    1  UNL1        0.0298
     18 C          63.4240   80.8564   10.3165 C.ar    1  UNL1        0.1416
     19 F          63.5517   79.8072    9.2520 F       1  UNL1       -0.2041
     20 C          62.6068   80.5834   11.5443 C.ar    1  UNL1        0.0484
     21 C          62.4791   81.6325   12.6087 C.ar    1  UNL1        0.0817
     22 C          62.5590   89.1227   11.1522 C.2     1  UNL1        0.2488
     23 O          63.1274   89.9582   10.0437 O.2     1  UNL1       -0.2700
     24 N          61.2293   88.4506   10.9788 N.am    1  UNL1       -0.3038
     25 H          60.8563   87.9023   11.7064 H       1  UNL1        0.1496
     26 C          60.4680   88.6141    9.6968 C.3     1  UNL1        0.0597
     27 C          60.3734   90.0107   10.2357 C.3     1  UNL1        0.0197
     28 C          60.8269   87.1607    9.6031 C.3     1  UNL1        0.0351
     29 C          60.3917   86.3557    8.4145 C.3     1  UNL1        0.0702
     30 N          59.5975   87.0042    7.3196 N.3     1  UNL1       -0.2974
     31 C          59.2385   88.4576    7.4134 C.3     1  UNL1        0.0702
     32 C          59.6737   89.2625    8.6019 C.3     1  UNL1        0.0351
     33 H          58.7205   86.4884    7.2469 H       1  UNL1        0.1232
@<TRIPOS>BOND
     1    11    12    1
     2    12    13   ar
     3    13    14   ar
     4    14     1    1
     5     1     2   ar
     6     2     3   ar
     7     3     4   ar
     8     4     5   ar
     9     5     6   ar
    10     6     7   ar
    11     7    22    1
    12    22    23    2
    13    22    24   am
    14    24    26    1
    15    26    27    1
    16    26    28    1
    17    28    29    1
    18    29    30    1
    19    30    31    1
    20    31    32    1
    21     7     8   ar
    22     8     9   ar
    23    14    15   ar
    24    15    16   ar
    25    16    17   ar
    26    17    18   ar
    27    18    19    1
    28    18    20   ar
    29    20    21   ar
    30    21    12   ar
    31     9     1   ar
    32    21    15   ar
    33     8     4    1
    34    32    26    1
    35    24    25    1
    36    30    33    1
    37     9    10    1
@<TRIPOS>MOLECULE
*****
 33 37 0 0 0
SMALL
GASTEIGER

@<TRIPOS>ATOM
      1 C          63.4986   89.3883   13.7569 C.ar    1  UNL1        0.0957
      2 C          62.9897   89.3046   15.1654 C.ar    1  UNL1        0.1191
      3 N          63.4904   90.2660   16.2022 N.ar    1  UNL1       -0.2223
      4 C          64.5001   91.3112   15.8305 C.ar    1  UNL1        0.1784
      5 N          65.1721   92.3871   16.6309 N.ar    1  UNL1       -0.2236
      6 C          66.0965   93.1358   15.7171 C.ar    1  UNL1        0.1066
      7 C          65.9957   92.5226   14.3519 C.ar    1  UNL1        0.0910
      8 C          65.0091   91.3949   14.4220 C.ar    1  UNL1        0.0988
      9 N          64.5084   90.4335   13.3852 N.ar    1  UNL1       -0.3481
     10 H          64.8424   90.4884   12.4607 H       1  UNL1        0.1661
     11 C          62.5314   84.9371   11.0862 C.3     1  UNL1        0.1537
     12 N          62.5533   86.3809   11.4925 N.ar    1  UNL1       -0.2487
     13 N          63.2310   86.9451   12.7060 N.ar    1  UNL1       -0.1677
     14 C          62.9979   88.4268   12.7201 C.ar    1  UNL1        0.1193
     15 C          62.1763   88.7784   11.5153 C.ar    1  UNL1        0.0382
     16 C          61.6429   90.0865   11.0112 C.ar    1  UNL1        0.0054
     17 C          60.8347   90.1301    9.7483 C.ar    1  UNL1        0.0298
     18 C          60.5599   88.8657    8.9896 C.ar    1  UNL1        0.1416
     19 F          59.7517   88.9094    7.7267 F       1  UNL1       -0.2041
     20 C          61.0934   87.5575    9.4938 C.ar    1  UNL1        0.0484
     21 C          61.9016   87.5139   10.7567 C.ar    1  UNL1        0.0817
     22 C          66.7492   92.9602   13.1309 C.2     1  UNL1        0.2488
     23 O          68.2391   92.7972   13.0706 O.2     1  UNL1       -0.2700
     24 N          66.0129   93.5609   11.9703 N.am    1  UNL1       -0.3038
     25 H          65.0351   93.6679   12.0099 H       1  UNL1        0.1496
     26 C          66.7665   93.9985   10.7495 C.3     1  UNL1        0.0597
     27 C          66.2570   95.3248   11.2304 C.3     1  UNL1        0.0197
     28 C          67.0143   92.5202   10.6925 C.3     1  UNL1        0.0351
     29 C          67.8387   91.9401    9.5817 C.3     1  UNL1        0.0702
     30 N          68.4154   92.8384    8.5278 N.3     1  UNL1       -0.2974
     31 C          68.1676   94.3167    8.5848 C.3     1  UNL1        0.0702
     32 C          67.3432   94.8967    9.6956 C.3     1  UNL1        0.0351
     33 H          68.0514   92.5131    7.6323 H       1  UNL1        0.1232
@<TRIPOS>BOND
     1    11    12    1
     2    12    13   ar
     3    13    14   ar
     4    14     1    1
     5     1     2   ar
     6     2     3   ar
     7     3     4   ar
     8     4     5   ar
     9     5     6   ar
    10     6     7   ar
    11     7    22    1
    12    22    23    2
    13    22    24   am
    14    24    26    1
    15    26    27    1
    16    26    28    1
    17    28    29    1
    18    29    30    1
    19    30    31    1
    20    31    32    1
    21     7     8   ar
    22     8     9   ar
    23    14    15   ar
    24    15    16   ar
    25    16    17   ar
    26    17    18   ar
    27    18    19    1
    28    18    20   ar
    29    20    21   ar
    30    21    12   ar
    31     9     1   ar
    32    21    15   ar
    33     8     4    1
    34    32    26    1
    35    24    25    1
    36    30    33    1
    37     9    10    1
@<TRIPOS>MOLECULE
*****
 33 37 0 0 0
SMALL
GASTEIGER

@<TRIPOS>ATOM
      1 C          63.5277   89.7161   14.4223 C.ar    1  UNL1        0.0957
      2 C          63.3004   90.4725   15.6975 C.ar    1  UNL1        0.1191
      3 N          63.1272   89.7300   16.9893 N.ar    1  UNL1       -0.2223
      4 C          63.1813   88.2310   17.0058 C.ar    1  UNL1        0.1784
      5 N          63.0457   87.2340   18.1182 N.ar    1  UNL1       -0.2236
      6 C          63.1892   85.8614   17.5306 C.ar    1  UNL1        0.1066
      7 C          63.4134   86.0101   16.0549 C.ar    1  UNL1        0.0910
      8 C          63.4086   87.4746   15.7306 C.ar    1  UNL1        0.0988
      9 N          63.5818   88.2171   14.4388 N.ar    1  UNL1       -0.3481
     10 H          63.7309   87.7207   13.6019 H       1  UNL1        0.1661
     11 C          62.9514   91.2775    9.4112 C.3     1  UNL1        0.1537
     12 N          63.4360   91.1763   10.8272 N.ar    1  UNL1       -0.2487
     13 N          62.9428   90.2075   11.8607 N.ar    1  UNL1       -0.1677
     14 C          63.7008   90.4587   13.1305 C.ar    1  UNL1        0.1193
     15 C          64.6625   91.5827   12.8817 C.ar    1  UNL1        0.0382
     16 C          65.6660   92.2596   13.7675 C.ar    1  UNL1        0.0054
     17 C          66.5058   93.3800   13.2298 C.ar    1  UNL1        0.0298
     18 C          66.3421   93.8236   11.8063 C.ar    1  UNL1        0.1416
     19 F          67.1820   94.9441   11.2685 F       1  UNL1       -0.2041
     20 C          65.3386   93.1467   10.9205 C.ar    1  UNL1        0.0484
     21 C          64.4988   92.0262   11.4582 C.ar    1  UNL1        0.0817
     22 C          63.6084   84.8908   15.0755 C.2     1  UNL1        0.2488
     23 O          64.9156   84.1569   15.0258 O.2     1  UNL1       -0.2700
     24 N          62.4960   84.5054   14.1460 N.am    1  UNL1       -0.3038
     25 H          61.6380   84.9870   14.1786 H       1  UNL1        0.1496
     26 C          62.6910   83.3861   13.1666 C.3     1  UNL1        0.0597
     27 C          63.1456   84.5457   12.3307 C.3     1  UNL1        0.0197
     28 C          62.1687   82.6152   14.3426 C.3     1  UNL1        0.0351
     29 C          61.9993   81.1277   14.2490 C.3     1  UNL1        0.0702
     30 N          62.3521   80.4111   12.9793 N.3     1  UNL1       -0.2974
     31 C          62.8744   81.1820   11.8034 C.3     1  UNL1        0.0702
     32 C          63.0438   82.6695   11.8970 C.3     1  UNL1        0.0351
     33 H          61.5071   79.9332   12.6664 H       1  UNL1        0.1232
@<TRIPOS>BOND
     1    11    12    1
     2    12    13   ar
     3    13    14   ar
     4    14     1    1
     5     1     2   ar
     6     2     3   ar
     7     3     4   ar
     8     4     5   ar
     9     5     6   ar
    10     6     7   ar
    11     7    22    1
    12    22    23    2
    13    22    24   am
    14    24    26    1
    15    26    27    1
    16    26    28    1
    17    28    29    1
    18    29    30    1
    19    30    31    1
    20    31    32    1
    21     7     8   ar
    22     8     9   ar
    23    14    15   ar
    24    15    16   ar
    25    16    17   ar
    26    17    18   ar
    27    18    19    1
    28    18    20   ar
    29    20    21   ar
    30    21    12   ar
    31     9     1   ar
    32    21    15   ar
    33     8     4    1
    34    32    26    1
    35    24    25    1
    36    30    33    1
    37     9    10    1
@<TRIPOS>MOLECULE
*****
 33 37 0 0 0
SMALL
GASTEIGER

@<TRIPOS>ATOM
      1 C          63.4644   89.3346   13.6666 C.ar    1  UNL1        0.0957
      2 C          63.0000   89.2522   15.0904 C.ar    1  UNL1        0.1191
      3 N          63.5298   90.2172   16.1093 N.ar    1  UNL1       -0.2223
      4 C          64.5242   91.2646   15.7042 C.ar    1  UNL1        0.1784
      5 N          65.2176   92.3442   16.4812 N.ar    1  UNL1       -0.2236
      6 C          66.1107   93.0938   15.5376 C.ar    1  UNL1        0.1066
      7 C          65.9692   92.4776   14.1774 C.ar    1  UNL1        0.0910
      8 C          64.9887   91.3471   14.2804 C.ar    1  UNL1        0.0988
      9 N          64.4588   90.3821   13.2615 N.ar    1  UNL1       -0.3481
     10 H          64.7637   90.4362   12.3270 H       1  UNL1        0.1661
     11 C          61.0018   87.3399    9.4432 C.3     1  UNL1        0.1537
     12 N          61.8026   87.4527   10.7065 N.ar    1  UNL1       -0.2487
     13 N          62.1109   88.7217   11.4446 N.ar    1  UNL1       -0.1677
     14 C          62.9345   88.3696   12.6478 C.ar    1  UNL1        0.1193
     15 C          63.1353   86.8831   12.6533 C.ar    1  UNL1        0.0382
     16 C          63.8647   85.9723   13.5958 C.ar    1  UNL1        0.0054
     17 C          63.8945   84.4949   13.3385 C.ar    1  UNL1        0.0298
     18 C          63.1950   83.9282   12.1387 C.ar    1  UNL1        0.1416
     19 F          63.2248   82.4507   11.8815 F       1  UNL1       -0.2041
     20 C          62.4655   84.8390   11.1962 C.ar    1  UNL1        0.0484
     21 C          62.4357   86.3164   11.4535 C.ar    1  UNL1        0.0817
     22 C          66.6829   92.9150   12.9326 C.2     1  UNL1        0.2488
     23 O          68.1638   92.7125   12.8068 O.2     1  UNL1       -0.2700
     24 N          65.9157   93.5550   11.8138 N.am    1  UNL1       -0.3038
     25 H          64.9437   93.6880   11.8964 H       1  UNL1        0.1496
     26 C          66.6295   93.9925   10.5692 C.3     1  UNL1        0.0597
     27 C          66.6552   92.5053   10.3751 C.3     1  UNL1        0.0197
     28 C          66.3559   95.3277   11.1954 C.3     1  UNL1        0.0351
     29 C          66.8050   96.5840   10.5097 C.3     1  UNL1        0.0702
     30 N          67.5277   96.5049    9.1976 N.3     1  UNL1       -0.2974
     31 C          67.8012   95.1697    8.5714 C.3     1  UNL1        0.0702
     32 C          67.3522   93.9134    9.2571 C.3     1  UNL1        0.0351
     33 H          68.4317   96.9581    9.3316 H       1  UNL1        0.1232
@<TRIPOS>BOND
     1    11    12    1
     2    12    13   ar
     3    13    14   ar
     4    14     1    1
     5     1     2   ar
     6     2     3   ar
     7     3     4   ar
     8     4     5   ar
     9     5     6   ar
    10     6     7   ar
    11     7    22    1
    12    22    23    2
    13    22    24   am
    14    24    26    1
    15    26    27    1
    16    26    28    1
    17    28    29    1
    18    29    30    1
    19    30    31    1
    20    31    32    1
    21     7     8   ar
    22     8     9   ar
    23    14    15   ar
    24    15    16   ar
    25    16    17   ar
    26    17    18   ar
    27    18    19    1
    28    18    20   ar
    29    20    21   ar
    30    21    12   ar
    31     9     1   ar
    32    21    15   ar
    33     8     4    1
    34    32    26    1
    35    24    25    1
    36    30    33    1
    37     9    10    1
@<TRIPOS>MOLECULE
*****
 33 37 0 0 0
SMALL
GASTEIGER

@<TRIPOS>ATOM
      1 C          62.9056   90.4115   10.8670 C.ar    1  UNL1        0.0957
      2 C          61.8094   90.9616   10.0036 C.ar    1  UNL1        0.1191
      3 N          60.7490   90.0478    9.4646 N.ar    1  UNL1       -0.2223
      4 C          60.7848   88.5838    9.7890 C.ar    1  UNL1        0.1784
      5 N          59.8835   87.4482    9.4043 N.ar    1  UNL1       -0.2236
      6 C          60.4227   86.1961   10.0300 C.ar    1  UNL1        0.1066
      7 C          61.6572   86.5578   10.8014 C.ar    1  UNL1        0.0910
      8 C          61.8810   88.0335   10.6524 C.ar    1  UNL1        0.0988
      9 N          62.9414   88.9473   11.1915 N.ar    1  UNL1       -0.3481
     10 H          63.6609   88.5862   11.7582 H       1  UNL1        0.1661
     11 C          66.7261   94.0437   11.1682 C.3     1  UNL1        0.1537
     12 N          65.7220   92.9948   11.5445 N.ar    1  UNL1       -0.2487
     13 N          64.7904   92.2886   10.6047 N.ar    1  UNL1       -0.1677
     14 C          63.9659   91.3253   11.4061 C.ar    1  UNL1        0.1193
     15 C          64.3880   91.4362   12.8412 C.ar    1  UNL1        0.0382
     16 C          63.9242   90.7309   14.0812 C.ar    1  UNL1        0.0054
     17 C          64.5457   91.0575   15.4066 C.ar    1  UNL1        0.0298
     18 C          65.6311   92.0893   15.4922 C.ar    1  UNL1        0.1416
     19 F          66.2526   92.4159   16.8178 F       1  UNL1       -0.2041
     20 C          66.0949   92.7946   14.2523 C.ar    1  UNL1        0.0484
     21 C          65.4733   92.4680   12.9268 C.ar    1  UNL1        0.0817
     22 C          62.5170   85.6102   11.5843 C.2     1  UNL1        0.2488
     23 O          63.3244   86.1137   12.7439 O.2     1  UNL1       -0.2700
     24 N          62.5693   84.1593   11.2077 N.am    1  UNL1       -0.3038
     25 H          62.0393   83.8288   10.4466 H       1  UNL1        0.1496
     26 C          63.4290   83.2118   11.9906 C.3     1  UNL1        0.0597
     27 C          64.2919   83.4059   10.7790 C.3     1  UNL1        0.0197
     28 C          62.2676   83.3467   12.9303 C.3     1  UNL1        0.0351
     29 C          62.2656   82.6015   14.2321 C.3     1  UNL1        0.0702
     30 N          63.4251   81.7214   14.5943 N.3     1  UNL1       -0.2974
     31 C          64.5864   81.5865   13.6546 C.3     1  UNL1        0.0702
     32 C          64.5884   82.3316   12.3528 C.3     1  UNL1        0.0351
     33 H          63.0499   80.7834   14.7354 H       1  UNL1        0.1232
@<TRIPOS>BOND
     1    11    12    1
     2    12    13   ar
     3    13    14   ar
     4    14     1    1
     5     1     2   ar
     6     2     3   ar
     7     3     4   ar
     8     4     5   ar
     9     5     6   ar
    10     6     7   ar
    11     7    22    1
    12    22    23    2
    13    22    24   am
    14    24    26    1
    15    26    27    1
    16    26    28    1
    17    28    29    1
    18    29    30    1
    19    30    31    1
    20    31    32    1
    21     7     8   ar
    22     8     9   ar
    23    14    15   ar
    24    15    16   ar
    25    16    17   ar
    26    17    18   ar
    27    18    19    1
    28    18    20   ar
    29    20    21   ar
    30    21    12   ar
    31     9     1   ar
    32    21    15   ar
    33     8     4    1
    34    32    26    1
    35    24    25    1
    36    30    33    1
    37     9    10    1
