@<TRIPOS>MOLECULE
*****
 47 50 0 0 0
SMALL
GASTEIGER

@<TRIPOS>ATOM
      1 N          61.1451   88.4470   11.4293 N.am    1  UNL1       -0.2692
      2 C          62.5183   88.9880   11.6973 C.2     1  UNL1        0.2405
      3 O          63.5557   88.1160   12.3403 O.2     1  UNL1       -0.2734
      4 C          62.8541   90.4010   11.3223 C.3     1  UNL1        0.1329
      5 N          62.9314   90.7953    9.8771 N.3     1  UNL1       -0.3148
      6 H          63.1688   91.7848    9.8068 H       1  UNL1        0.1192
      7 H          62.0293   90.6296    9.4308 H       1  UNL1        0.1192
      8 C          63.1126   91.4199   12.3925 C.3     1  UNL1        0.0505
      9 C          64.4998   91.6055   12.9319 C.ar    1  UNL1       -0.0282
     10 C          65.5114   92.3867   12.1469 C.ar    1  UNL1       -0.0259
     11 C          65.1358   92.9824   10.8225 C.3     1  UNL1        0.0307
     12 C          66.8988   92.5724   12.6863 C.ar    1  UNL1       -0.0001
     13 C          67.2744   91.9768   14.0107 C.ar    1  UNL1        0.0525
     14 C          66.2628   91.1955   14.7958 C.ar    1  UNL1       -0.0001
     15 C          64.8755   91.0099   14.2563 C.ar    1  UNL1       -0.0259
     16 C          63.8639   90.2286   15.0414 C.3     1  UNL1        0.0307
     17 C          68.6617   92.1625   14.5501 C.2     1  UNL1        0.2427
     18 N          69.8447   92.0351   13.6369 N.am    1  UNL1       -0.3253
     19 O          68.8659   92.4754   16.0029 O.2     1  UNL1       -0.2704
     20 H          69.7107   91.8297   12.6834 H       1  UNL1        0.1453
     21 H          70.7553   92.1570   13.9909 H       1  UNL1        0.1453
     22 C          60.1078   89.3190   10.7863 C.3     1  UNL1        0.1322
     23 C          59.2901   90.2554   11.6258 C.3     1  UNL1        0.0297
     24 C          59.8881   89.2547    9.3039 C.ar    1  UNL1        0.1353
     25 N          59.9348   90.4151    8.3546 N.ar    1  UNL1       -0.2295
     26 C          59.6587   89.8963    6.9745 C.ar    1  UNL1        0.0996
     27 C          59.4414   88.4152    7.0709 C.ar    1  UNL1        0.0927
     28 N          59.5832   88.0187    8.5106 N.ar    1  UNL1       -0.3383
     29 H          59.4920   87.1073    8.8715 H       1  UNL1        0.1672
     30 C          59.6088   90.7148    5.7185 C.ar    1  UNL1        0.0192
     31 C          58.2920   91.2091    5.1972 C.ar    1  UNL1        0.0015
     32 C          58.2419   92.0276    3.9412 C.ar    1  UNL1        0.0000
     33 C          59.5088   92.3519    3.2065 C.ar    1  UNL1        0.0000
     34 C          60.8256   91.8577    3.7277 C.ar    1  UNL1        0.0000
     35 C          60.8756   91.0392    4.9837 C.ar    1  UNL1        0.0015
     36 C          60.8094   87.0340   11.8044 C.3     1  UNL1        0.1205
     37 C          63.6172   83.6897   10.7172 C.ar    1  UNL1        0.1397
     38 C          63.0007   84.5316    9.6396 C.ar    1  UNL1        0.0367
     39 C          62.0648   85.6464   10.0020 C.ar    1  UNL1        0.0005
     40 C          61.7453   85.9193   11.4420 C.ar    1  UNL1       -0.0021
     41 C          62.3618   85.0774   12.5195 C.ar    1  UNL1        0.0015
     42 C          63.2977   83.9626   12.1571 C.ar    1  UNL1        0.0477
     43 C          63.9142   83.1207   13.2347 C.2     1  UNL1        0.0758
     44 O          63.4942   81.6904   13.4016 O.co2   1  UNL1       -0.5445
     45 O          64.9507   83.7091   14.1454 O.co2   1  UNL1       -0.5445
     46 C          64.0111   81.2101   10.0493 C.3     1  UNL1        0.2525
     47 O          64.5531   82.5749   10.3548 O.3     1  UNL1       -0.4714
@<TRIPOS>UNITY_ATOM_ATTR
44 1
charge -1
@<TRIPOS>BOND
     1    46    47    1
     2    47    37    1
     3    37    38   ar
     4    38    39   ar
     5    39    40   ar
     6    40    36    1
     7    36     1    1
     8     1     2   am
     9     2     3    2
    10     2     4    1
    11     4     5    1
    12     4     8    1
    13     8     9    1
    14     9    10   ar
    15    10    11    1
    16    10    12   ar
    17    12    13   ar
    18    13    17    1
    19    17    18   am
    20    17    19    2
    21    13    14   ar
    22    14    15   ar
    23    15    16    1
    24     1    22    1
    25    22    23    1
    26    22    24    1
    27    24    25   ar
    28    25    26   ar
    29    26    30    1
    30    30    31   ar
    31    31    32   ar
    32    32    33   ar
    33    33    34   ar
    34    34    35   ar
    35    26    27   ar
    36    27    28   ar
    37    40    41   ar
    38    41    42   ar
    39    42    43    1
    40    43    44   ar
    41    43    45   ar
    42    42    37   ar
    43    15     9   ar
    44    28    24   ar
    45    35    30   ar
    46     5     6    1
    47     5     7    1
    48    18    20    1
    49    18    21    1
    50    28    29    1
@<TRIPOS>MOLECULE
*****
 47 50 0 0 0
SMALL
GASTEIGER

@<TRIPOS>ATOM
      1 N          64.8629   90.9685   14.1967 N.am    1  UNL1       -0.2692
      2 C          64.2548   90.5181   12.9016 C.2     1  UNL1        0.2405
      3 O          64.8846   90.9147   11.5993 O.2     1  UNL1       -0.2734
      4 C          63.0168   89.6712   12.9088 C.3     1  UNL1        0.1329
      5 N          61.8125   90.1099   13.6880 N.3     1  UNL1       -0.3148
      6 H          61.0688   89.4199   13.5815 H       1  UNL1        0.1192
      7 H          61.4914   91.0126   13.3381 H       1  UNL1        0.1192
      8 C          62.9831   88.3855   12.1367 C.3     1  UNL1        0.0505
      9 C          62.0097   88.2135   11.0085 C.ar    1  UNL1       -0.0282
     10 C          61.5886   89.4004   10.1938 C.ar    1  UNL1       -0.0259
     11 C          62.1408   90.7593   10.5072 C.3     1  UNL1        0.0307
     12 C          60.6151   89.2283    9.0655 C.ar    1  UNL1       -0.0001
     13 C          60.0629   87.8694    8.7521 C.ar    1  UNL1        0.0525
     14 C          60.4841   86.6824    9.5669 C.ar    1  UNL1       -0.0001
     15 C          61.4575   86.8545   10.6951 C.ar    1  UNL1       -0.0259
     16 C          61.8786   85.6676   11.5098 C.3     1  UNL1        0.0307
     17 C          59.0895   87.6973    7.6239 C.2     1  UNL1        0.2427
     18 N          58.8336   88.8303    6.6748 N.am    1  UNL1       -0.3253
     19 O          58.3720   86.3923    7.4448 O.2     1  UNL1       -0.2704
     20 H          59.3045   89.6868    6.7923 H       1  UNL1        0.1453
     21 H          58.1947   88.7174    5.9343 H       1  UNL1        0.1453
     22 C          64.2330   90.5720   15.4990 C.3     1  UNL1        0.1322
     23 C          63.9490   91.6119   16.5421 C.3     1  UNL1        0.0297
     24 C          63.8872   89.1356   15.7582 C.ar    1  UNL1        0.1353
     25 N          64.1511   87.9845   14.8334 N.ar    1  UNL1       -0.2295
     26 C          63.6437   86.7356   15.4914 C.ar    1  UNL1        0.0996
     27 C          63.0662   87.1149   16.8228 C.ar    1  UNL1        0.0927
     28 N          63.2167   88.5982   16.9877 N.ar    1  UNL1       -0.3383
     29 H          62.9264   89.1263   17.7662 H       1  UNL1        0.1672
     30 C          63.7033   85.3506   14.9184 C.ar    1  UNL1        0.0192
     31 C          62.6927   84.3230   15.3338 C.ar    1  UNL1        0.0015
     32 C          62.7522   82.9380   14.7609 C.ar    1  UNL1        0.0000
     33 C          63.8226   82.5806   13.7726 C.ar    1  UNL1        0.0000
     34 C          64.8333   83.6082   13.3573 C.ar    1  UNL1        0.0000
     35 C          64.7737   84.9932   13.9302 C.ar    1  UNL1        0.0015
     36 C          66.1009   91.8155   14.1895 C.3     1  UNL1        0.1205
     37 C          67.0778   94.3420   10.5961 C.ar    1  UNL1        0.1397
     38 C          66.2029   94.8913   11.6837 C.ar    1  UNL1        0.0367
     39 C          65.8773   94.0491   12.8815 C.ar    1  UNL1        0.0005
     40 C          66.4265   92.6577   12.9917 C.ar    1  UNL1       -0.0021
     41 C          67.3014   92.1084   11.9042 C.ar    1  UNL1        0.0015
     42 C          67.6270   92.9506   10.7064 C.ar    1  UNL1        0.0477
     43 C          68.5020   92.4012    9.6188 C.2     1  UNL1        0.0758
     44 O          69.8478   93.0106    9.3593 O.co2   1  UNL1       -0.5445
     45 O          68.0310   91.2426    8.7907 O.co2   1  UNL1       -0.5445
     46 C          67.1671   96.6649    9.4360 C.3     1  UNL1        0.2525
     47 O          67.4034   95.1842    9.3983 O.3     1  UNL1       -0.4714
@<TRIPOS>UNITY_ATOM_ATTR
44 1
charge -1
@<TRIPOS>BOND
     1    46    47    1
     2    47    37    1
     3    37    38   ar
     4    38    39   ar
     5    39    40   ar
     6    40    36    1
     7    36     1    1
     8     1     2   am
     9     2     3    2
    10     2     4    1
    11     4     5    1
    12     4     8    1
    13     8     9    1
    14     9    10   ar
    15    10    11    1
    16    10    12   ar
    17    12    13   ar
    18    13    17    1
    19    17    18   am
    20    17    19    2
    21    13    14   ar
    22    14    15   ar
    23    15    16    1
    24     1    22    1
    25    22    23    1
    26    22    24    1
    27    24    25   ar
    28    25    26   ar
    29    26    30    1
    30    30    31   ar
    31    31    32   ar
    32    32    33   ar
    33    33    34   ar
    34    34    35   ar
    35    26    27   ar
    36    27    28   ar
    37    40    41   ar
    38    41    42   ar
    39    42    43    1
    40    43    44   ar
    41    43    45   ar
    42    42    37   ar
    43    15     9   ar
    44    28    24   ar
    45    35    30   ar
    46     5     6    1
    47     5     7    1
    48    18    20    1
    49    18    21    1
    50    28    29    1
@<TRIPOS>MOLECULE
*****
 47 50 0 0 0
SMALL
GASTEIGER

@<TRIPOS>ATOM
      1 N          64.8928   91.0618   14.2029 N.am    1  UNL1       -0.2692
      2 C          64.2918   90.5728   12.9184 C.2     1  UNL1        0.2405
      3 O          64.9163   90.9486   11.6074 O.2     1  UNL1       -0.2734
      4 C          63.0665   89.7081   12.9450 C.3     1  UNL1        0.1329
      5 N          61.8622   90.1377   13.7292 N.3     1  UNL1       -0.3148
      6 H          61.1279   89.4359   13.6364 H       1  UNL1        0.1192
      7 H          61.5251   91.0317   13.3721 H       1  UNL1        0.1192
      8 C          63.0455   88.4136   12.1874 C.3     1  UNL1        0.0505
      9 C          62.0828   88.2241   11.0529 C.ar    1  UNL1       -0.0282
     10 C          61.5284   86.8617   10.7593 C.ar    1  UNL1       -0.0259
     11 C          61.9367   85.6886   11.6003 C.3     1  UNL1        0.0307
     12 C          60.5656   86.6722    9.6247 C.ar    1  UNL1       -0.0001
     13 C          60.1572   87.8452    8.7838 C.ar    1  UNL1        0.0525
     14 C          60.7117   89.2077    9.0774 C.ar    1  UNL1       -0.0001
     15 C          61.6744   89.3972   10.2119 C.ar    1  UNL1       -0.0259
     16 C          62.2288   90.7597   10.5055 C.3     1  UNL1        0.0307
     17 C          59.1945   87.6558    7.6492 C.2     1  UNL1        0.2427
     18 N          58.5820   86.3090    7.4023 N.am    1  UNL1       -0.3253
     19 O          58.8442   88.8131    6.7616 O.2     1  UNL1       -0.2704
     20 H          58.8119   85.5494    7.9849 H       1  UNL1        0.1453
     21 H          57.9501   86.1846    6.6577 H       1  UNL1        0.1453
     22 C          64.2683   90.6860   15.5140 C.3     1  UNL1        0.1322
     23 C          64.0121   91.7385   16.5517 C.3     1  UNL1        0.0297
     24 C          63.9000   89.2579   15.7873 C.ar    1  UNL1        0.1353
     25 N          64.1912   88.0864   14.8969 N.ar    1  UNL1       -0.2295
     26 C          63.6471   86.8550   15.5583 C.ar    1  UNL1        0.0996
     27 C          63.0196   87.2654   16.8575 C.ar    1  UNL1        0.0927
     28 N          63.1759   88.7505   16.9990 N.ar    1  UNL1       -0.3383
     29 H          62.8589   89.2963   17.7545 H       1  UNL1        0.1672
     30 C          63.7180   85.4583   15.0157 C.ar    1  UNL1        0.0192
     31 C          64.7607   85.1009   13.9984 C.ar    1  UNL1        0.0015
     32 C          64.8316   83.7043   13.4558 C.ar    1  UNL1        0.0000
     33 C          63.8597   82.6650   13.9307 C.ar    1  UNL1        0.0000
     34 C          62.8171   83.0224   14.9480 C.ar    1  UNL1        0.0000
     35 C          62.7462   84.4190   15.4906 C.ar    1  UNL1        0.0015
     36 C          66.1181   91.9266   14.1763 C.3     1  UNL1        0.1205
     37 C          67.0658   94.3741   10.5210 C.ar    1  UNL1        0.1397
     38 C          66.1894   94.9423   11.5975 C.ar    1  UNL1        0.0367
     39 C          65.8735   94.1265   12.8160 C.ar    1  UNL1        0.0005
     40 C          66.4340   92.7424   12.9579 C.ar    1  UNL1       -0.0021
     41 C          67.3104   92.1742   11.8813 C.ar    1  UNL1        0.0015
     42 C          67.6263   92.9900   10.6629 C.ar    1  UNL1        0.0477
     43 C          68.5027   92.4217    9.5863 C.2     1  UNL1        0.0758
     44 O          68.0150   91.2773    8.7484 O.co2   1  UNL1       -0.5445
     45 O          69.8669   92.9980    9.3477 O.co2   1  UNL1       -0.5445
     46 C          67.3108   96.6870    9.3632 C.3     1  UNL1        0.2525
     47 O          67.3817   95.1899    9.3026 O.3     1  UNL1       -0.4714
@<TRIPOS>UNITY_ATOM_ATTR
44 1
charge -1
@<TRIPOS>BOND
     1    46    47    1
     2    47    37    1
     3    37    38   ar
     4    38    39   ar
     5    39    40   ar
     6    40    36    1
     7    36     1    1
     8     1     2   am
     9     2     3    2
    10     2     4    1
    11     4     5    1
    12     4     8    1
    13     8     9    1
    14     9    10   ar
    15    10    11    1
    16    10    12   ar
    17    12    13   ar
    18    13    17    1
    19    17    18   am
    20    17    19    2
    21    13    14   ar
    22    14    15   ar
    23    15    16    1
    24     1    22    1
    25    22    23    1
    26    22    24    1
    27    24    25   ar
    28    25    26   ar
    29    26    30    1
    30    30    31   ar
    31    31    32   ar
    32    32    33   ar
    33    33    34   ar
    34    34    35   ar
    35    26    27   ar
    36    27    28   ar
    37    40    41   ar
    38    41    42   ar
    39    42    43    1
    40    43    44   ar
    41    43    45   ar
    42    42    37   ar
    43    15     9   ar
    44    28    24   ar
    45    35    30   ar
    46     5     6    1
    47     5     7    1
    48    18    20    1
    49    18    21    1
    50    28    29    1
@<TRIPOS>MOLECULE
*****
 47 50 0 0 0
SMALL
GASTEIGER

@<TRIPOS>ATOM
      1 N          64.4494   88.8298   14.7381 N.am    1  UNL1       -0.2692
      2 C          65.2631   90.0891   14.7816 C.2     1  UNL1        0.2405
      3 O          66.7605   90.0133   14.8280 O.2     1  UNL1       -0.2734
      4 C          64.5795   91.4243   14.7786 C.3     1  UNL1        0.1329
      5 N          64.3991   92.1773   16.0633 N.3     1  UNL1       -0.3148
      6 H          63.9189   93.0577   15.8768 H       1  UNL1        0.1192
      7 H          65.3119   92.3688   16.4763 H       1  UNL1        0.1192
      8 C          64.0763   92.0064   13.4910 C.3     1  UNL1        0.0505
      9 C          65.0445   92.3819   12.4086 C.ar    1  UNL1       -0.0282
     10 C          64.7673   91.9934   10.9866 C.ar    1  UNL1       -0.0259
     11 C          63.5218   91.2296   10.6470 C.3     1  UNL1        0.0307
     12 C          65.7355   92.3688    9.9041 C.ar    1  UNL1       -0.0001
     13 C          66.9810   93.1327   10.2438 C.ar    1  UNL1        0.0525
     14 C          67.2582   93.5211   11.6659 C.ar    1  UNL1       -0.0001
     15 C          66.2900   93.1457   12.7483 C.ar    1  UNL1       -0.0259
     16 C          66.5672   93.5341   14.1703 C.3     1  UNL1        0.0307
     17 C          67.9492   93.5081    9.1614 C.2     1  UNL1        0.2427
     18 N          68.1234   94.9475    8.7772 N.am    1  UNL1       -0.3253
     19 O          68.7431   92.4441    8.4632 O.2     1  UNL1       -0.2704
     20 H          67.6023   95.6459    9.2355 H       1  UNL1        0.1453
     21 H          68.7589   95.1940    8.0668 H       1  UNL1        0.1453
     22 C          62.9520   88.9056   14.6917 C.3     1  UNL1        0.1322
     23 C          62.1693   89.0620   15.9617 C.3     1  UNL1        0.0297
     24 C          62.2374   88.8250   13.3753 C.ar    1  UNL1        0.1353
     25 N          62.4194   87.7576   12.3373 N.ar    1  UNL1       -0.2295
     26 C          61.5098   88.0705   11.1863 C.ar    1  UNL1        0.0996
     27 C          60.7657   89.3313   11.5130 C.ar    1  UNL1        0.0927
     28 N          61.2154   89.7976   12.8659 N.ar    1  UNL1       -0.3383
     29 H          60.8958   90.6009   13.3369 H       1  UNL1        0.1672
     30 C          61.3691   87.2642    9.9292 C.ar    1  UNL1        0.0192
     31 C          62.5133   86.4237    9.4453 C.ar    1  UNL1        0.0015
     32 C          62.3727   85.6174    8.1883 C.ar    1  UNL1        0.0000
     33 C          61.0876   85.6516    7.4152 C.ar    1  UNL1        0.0000
     34 C          59.9434   86.4922    7.8992 C.ar    1  UNL1        0.0000
     35 C          60.0841   87.2984    9.1562 C.ar    1  UNL1        0.0015
     36 C          65.1330   87.4946   14.7410 C.3     1  UNL1        0.1205
     37 C          62.6949   83.7180   14.5348 C.ar    1  UNL1        0.1397
     38 C          62.7085   84.5341   15.7932 C.ar    1  UNL1        0.0367
     39 C          63.5212   85.7930   15.8620 C.ar    1  UNL1        0.0005
     40 C          64.3203   86.2357   14.6723 C.ar    1  UNL1       -0.0021
     41 C          64.3067   85.4196   13.4139 C.ar    1  UNL1        0.0015
     42 C          63.4940   84.1607   13.3451 C.ar    1  UNL1        0.0477
     43 C          63.4804   83.3445   12.0866 C.2     1  UNL1        0.0758
     44 O          62.2675   83.3471   11.2041 O.co2   1  UNL1       -0.5445
     45 O          64.6797   82.5258   11.7107 O.co2   1  UNL1       -0.5445
     46 C          62.5604   81.1397   14.2441 C.3     1  UNL1        0.2525
     47 O          61.8822   82.4591   14.4661 O.3     1  UNL1       -0.4714
@<TRIPOS>UNITY_ATOM_ATTR
44 1
charge -1
@<TRIPOS>BOND
     1    46    47    1
     2    47    37    1
     3    37    38   ar
     4    38    39   ar
     5    39    40   ar
     6    40    36    1
     7    36     1    1
     8     1     2   am
     9     2     3    2
    10     2     4    1
    11     4     5    1
    12     4     8    1
    13     8     9    1
    14     9    10   ar
    15    10    11    1
    16    10    12   ar
    17    12    13   ar
    18    13    17    1
    19    17    18   am
    20    17    19    2
    21    13    14   ar
    22    14    15   ar
    23    15    16    1
    24     1    22    1
    25    22    23    1
    26    22    24    1
    27    24    25   ar
    28    25    26   ar
    29    26    30    1
    30    30    31   ar
    31    31    32   ar
    32    32    33   ar
    33    33    34   ar
    34    34    35   ar
    35    26    27   ar
    36    27    28   ar
    37    40    41   ar
    38    41    42   ar
    39    42    43    1
    40    43    44   ar
    41    43    45   ar
    42    42    37   ar
    43    15     9   ar
    44    28    24   ar
    45    35    30   ar
    46     5     6    1
    47     5     7    1
    48    18    20    1
    49    18    21    1
    50    28    29    1
@<TRIPOS>MOLECULE
*****
 47 50 0 0 0
SMALL
GASTEIGER

@<TRIPOS>ATOM
      1 N          64.2987   89.2234   14.4650 N.am    1  UNL1       -0.2692
      2 C          63.3209   89.0865   13.3357 C.2     1  UNL1        0.2405
      3 O          63.1086   87.7518   12.6851 O.2     1  UNL1       -0.2734
      4 C          62.5554   90.2844   12.8571 C.3     1  UNL1        0.1329
      5 N          63.1951   91.6410   12.8790 N.3     1  UNL1       -0.3148
      6 H          62.5366   92.3332   12.5216 H       1  UNL1        0.1192
      7 H          64.0305   91.6325   12.2939 H       1  UNL1        0.1192
      8 C          61.1503   90.1257   12.3566 C.3     1  UNL1        0.0505
      9 C          60.8595   89.1882   11.2224 C.ar    1  UNL1       -0.0282
     10 C          61.7815   89.1322   10.0406 C.ar    1  UNL1       -0.0259
     11 C          62.9942   90.0137    9.9929 C.3     1  UNL1        0.0307
     12 C          61.4907   88.1946    8.9063 C.ar    1  UNL1       -0.0001
     13 C          60.2780   87.3131    8.9539 C.ar    1  UNL1        0.0525
     14 C          59.3560   87.3692   10.1359 C.ar    1  UNL1       -0.0001
     15 C          59.6468   88.3067   11.2701 C.ar    1  UNL1       -0.0259
     16 C          58.7248   88.3628   12.4519 C.3     1  UNL1        0.0307
     17 C          59.9872   86.3756    7.8197 C.2     1  UNL1        0.2427
     18 N          58.5928   86.2630    7.2785 N.am    1  UNL1       -0.3253
     19 O          61.0908   85.5507    7.2268 O.2     1  UNL1       -0.2704
     20 H          57.8685   86.8044    7.6677 H       1  UNL1        0.1453
     21 H          58.4020   85.6477    6.5341 H       1  UNL1        0.1453
     22 C          64.5110   90.5581   15.1156 C.3     1  UNL1        0.1322
     23 C          63.8668   90.8597   16.4363 C.3     1  UNL1        0.0297
     24 C          65.3675   91.5913   14.4457 C.ar    1  UNL1        0.1353
     25 N          65.6144   91.7103   12.9710 N.ar    1  UNL1       -0.2295
     26 C          66.5270   92.8794   12.7466 C.ar    1  UNL1        0.0996
     27 C          66.8441   93.4831   14.0828 C.ar    1  UNL1        0.0927
     28 N          66.1275   92.6869   15.1328 N.ar    1  UNL1       -0.3383
     29 H          66.1517   92.8541   16.1027 H       1  UNL1        0.1672
     30 C          67.0336   93.3606   11.4192 C.ar    1  UNL1        0.0192
     31 C          67.8654   92.4545   10.5607 C.ar    1  UNL1        0.0015
     32 C          68.3721   92.9355    9.2333 C.ar    1  UNL1        0.0000
     33 C          68.0467   94.3228    8.7644 C.ar    1  UNL1        0.0000
     34 C          67.2148   95.2288    9.6229 C.ar    1  UNL1        0.0000
     35 C          66.7082   94.7477   10.9503 C.ar    1  UNL1        0.0015
     36 C          65.0642   88.0255   14.9436 C.3     1  UNL1        0.1205
     37 C          63.0404   84.0139   15.1916 C.ar    1  UNL1        0.1397
     38 C          62.7947   85.0448   16.2532 C.ar    1  UNL1        0.0367
     39 C          63.4693   86.3820   16.1705 C.ar    1  UNL1        0.0005
     40 C          64.3896   86.6883   15.0263 C.ar    1  UNL1       -0.0021
     41 C          64.6352   85.6574   13.9648 C.ar    1  UNL1        0.0015
     42 C          63.9606   84.3202   14.0475 C.ar    1  UNL1        0.0477
     43 C          64.2064   83.2893   12.9859 C.2     1  UNL1        0.0758
     44 O          64.7309   81.9354   13.3623 O.co2   1  UNL1       -0.5445
     45 O          63.9275   83.6123   11.5479 O.co2   1  UNL1       -0.5445
     46 C          61.5540   82.1734   14.1177 C.3     1  UNL1        0.2525
     47 O          62.3658   82.6767   15.2743 O.3     1  UNL1       -0.4714
@<TRIPOS>UNITY_ATOM_ATTR
44 1
charge -1
@<TRIPOS>BOND
     1    46    47    1
     2    47    37    1
     3    37    38   ar
     4    38    39   ar
     5    39    40   ar
     6    40    36    1
     7    36     1    1
     8     1     2   am
     9     2     3    2
    10     2     4    1
    11     4     5    1
    12     4     8    1
    13     8     9    1
    14     9    10   ar
    15    10    11    1
    16    10    12   ar
    17    12    13   ar
    18    13    17    1
    19    17    18   am
    20    17    19    2
    21    13    14   ar
    22    14    15   ar
    23    15    16    1
    24     1    22    1
    25    22    23    1
    26    22    24    1
    27    24    25   ar
    28    25    26   ar
    29    26    30    1
    30    30    31   ar
    31    31    32   ar
    32    32    33   ar
    33    33    34   ar
    34    34    35   ar
    35    26    27   ar
    36    27    28   ar
    37    40    41   ar
    38    41    42   ar
    39    42    43    1
    40    43    44   ar
    41    43    45   ar
    42    42    37   ar
    43    15     9   ar
    44    28    24   ar
    45    35    30   ar
    46     5     6    1
    47     5     7    1
    48    18    20    1
    49    18    21    1
    50    28    29    1
@<TRIPOS>MOLECULE
*****
 47 50 0 0 0
SMALL
GASTEIGER

@<TRIPOS>ATOM
      1 N          63.0937   89.6837   11.6535 N.am    1  UNL1       -0.2692
      2 C          62.0086   89.1453   10.7687 C.2     1  UNL1        0.2405
      3 O          62.0258   89.4383    9.2977 O.2     1  UNL1       -0.2734
      4 C          60.9063   88.3140   11.3550 C.3     1  UNL1        0.1329
      5 N          59.8110   88.9689   12.1433 N.3     1  UNL1       -0.3148
      6 H          59.1521   88.2595   12.4642 H       1  UNL1        0.1192
      7 H          59.3238   89.6433   11.5531 H       1  UNL1        0.1192
      8 C          60.8992   86.8276   11.1530 C.3     1  UNL1        0.0505
      9 C          61.1623   86.2544    9.7921 C.ar    1  UNL1       -0.0282
     10 C          62.3754   85.4037    9.5583 C.ar    1  UNL1       -0.0259
     11 C          63.3254   85.1262   10.6855 C.3     1  UNL1        0.0307
     12 C          62.6385   84.8304    8.1974 C.ar    1  UNL1       -0.0001
     13 C          61.6885   85.1079    7.0702 C.ar    1  UNL1        0.0525
     14 C          60.4753   85.9586    7.3040 C.ar    1  UNL1       -0.0001
     15 C          60.2123   86.5319    8.6650 C.ar    1  UNL1       -0.0259
     16 C          58.9992   87.3825    8.8987 C.3     1  UNL1        0.0307
     17 C          61.9516   84.5347    5.7093 C.2     1  UNL1        0.2427
     18 N          60.9376   83.6365    5.0650 N.am    1  UNL1       -0.3253
     19 O          63.2286   84.8596    4.9926 O.2     1  UNL1       -0.2704
     20 H          60.0994   83.4233    5.5354 H       1  UNL1        0.1453
     21 H          61.1102   83.2603    4.1718 H       1  UNL1        0.1453
     22 C          63.0765   89.3907   13.1245 C.3     1  UNL1        0.1322
     23 C          62.5825   90.4272   14.0899 C.3     1  UNL1        0.0297
     24 C          63.5531   88.0614   13.6301 C.ar    1  UNL1        0.1353
     25 N          63.0367   86.7192   13.2037 N.ar    1  UNL1       -0.2295
     26 C          63.7943   85.6692   13.9609 C.ar    1  UNL1        0.0996
     27 C          64.7789   86.3624   14.8554 C.ar    1  UNL1        0.0927
     28 N          64.6299   87.8409   14.6509 N.ar    1  UNL1       -0.3383
     29 H          65.1478   88.5432   15.1067 H       1  UNL1        0.1672
     30 C          63.6012   84.1862   13.8442 C.ar    1  UNL1        0.0192
     31 C          64.5655   83.3653   13.0405 C.ar    1  UNL1        0.0015
     32 C          64.3725   81.8823   12.9237 C.ar    1  UNL1        0.0000
     33 C          63.2150   81.2203   13.6109 C.ar    1  UNL1        0.0000
     34 C          62.2507   82.0413   14.4147 C.ar    1  UNL1        0.0000
     35 C          62.4438   83.5243   14.5313 C.ar    1  UNL1        0.0015
     36 C          64.1960   90.5150   11.0672 C.3     1  UNL1        0.1205
     37 C          66.5185   93.3426   13.6866 C.ar    1  UNL1        0.1397
     38 C          66.1642   91.9744   14.1891 C.ar    1  UNL1        0.0367
     39 C          65.3901   91.0319   13.3160 C.ar    1  UNL1        0.0005
     40 C          64.9702   91.4576   11.9403 C.ar    1  UNL1       -0.0021
     41 C          65.3245   92.8257   11.4378 C.ar    1  UNL1        0.0015
     42 C          66.0986   93.7682   12.3109 C.ar    1  UNL1        0.0477
     43 C          66.4529   95.1364   11.8083 C.2     1  UNL1        0.0758
     44 O          66.0233   96.3517   12.5754 O.co2   1  UNL1       -0.5445
     45 O          67.2368   95.2893   10.5386 O.co2   1  UNL1       -0.5445
     46 C          68.1666   93.7474   15.6538 C.3     1  UNL1        0.2525
     47 O          67.2927   94.2851   14.5597 O.3     1  UNL1       -0.4714
@<TRIPOS>UNITY_ATOM_ATTR
44 1
charge -1
@<TRIPOS>BOND
     1    46    47    1
     2    47    37    1
     3    37    38   ar
     4    38    39   ar
     5    39    40   ar
     6    40    36    1
     7    36     1    1
     8     1     2   am
     9     2     3    2
    10     2     4    1
    11     4     5    1
    12     4     8    1
    13     8     9    1
    14     9    10   ar
    15    10    11    1
    16    10    12   ar
    17    12    13   ar
    18    13    17    1
    19    17    18   am
    20    17    19    2
    21    13    14   ar
    22    14    15   ar
    23    15    16    1
    24     1    22    1
    25    22    23    1
    26    22    24    1
    27    24    25   ar
    28    25    26   ar
    29    26    30    1
    30    30    31   ar
    31    31    32   ar
    32    32    33   ar
    33    33    34   ar
    34    34    35   ar
    35    26    27   ar
    36    27    28   ar
    37    40    41   ar
    38    41    42   ar
    39    42    43    1
    40    43    44   ar
    41    43    45   ar
    42    42    37   ar
    43    15     9   ar
    44    28    24   ar
    45    35    30   ar
    46     5     6    1
    47     5     7    1
    48    18    20    1
    49    18    21    1
    50    28    29    1
@<TRIPOS>MOLECULE
*****
 47 50 0 0 0
SMALL
GASTEIGER

@<TRIPOS>ATOM
      1 N          63.1020   89.8683   11.5605 N.am    1  UNL1       -0.2692
      2 C          61.8363   89.7245   10.7685 C.2     1  UNL1        0.2405
      3 O          61.8142   90.0971    9.3157 O.2     1  UNL1       -0.2734
      4 C          60.5926   89.2081   11.4293 C.3     1  UNL1        0.1329
      5 N          60.2999   89.5618   12.8573 N.3     1  UNL1       -0.3148
      6 H          59.4212   89.1288   13.1416 H       1  UNL1        0.1192
      7 H          60.2246   90.5750   12.9480 H       1  UNL1        0.1192
      8 C          59.6416   88.3379   10.6621 C.3     1  UNL1        0.0505
      9 C          60.1601   87.4166    9.5980 C.ar    1  UNL1       -0.0282
     10 C          59.8219   87.6679    8.1584 C.ar    1  UNL1       -0.0259
     11 C          58.9652   88.8405    7.7829 C.3     1  UNL1        0.0307
     12 C          60.3403   86.7465    7.0943 C.ar    1  UNL1       -0.0001
     13 C          61.1970   85.5739    7.4698 C.ar    1  UNL1        0.0525
     14 C          61.5353   85.3226    8.9094 C.ar    1  UNL1       -0.0001
     15 C          61.0168   86.2440    9.9735 C.ar    1  UNL1       -0.0259
     16 C          61.3551   85.9927   11.4131 C.3     1  UNL1        0.0307
     17 C          61.7155   84.6526    6.4057 C.2     1  UNL1        0.2427
     18 N          63.1893   84.5685    6.1394 N.am    1  UNL1       -0.3253
     19 O          60.7602   83.8154    5.6079 O.2     1  UNL1       -0.2704
     20 H          63.8162   85.1179    6.6631 H       1  UNL1        0.1453
     21 H          63.5296   83.9637    5.4410 H       1  UNL1        0.1453
     22 C          63.1241   89.4956   13.0133 C.3     1  UNL1        0.1322
     23 C          62.7320   90.5041   14.0523 C.3     1  UNL1        0.0297
     24 C          63.5382   88.1147   13.4272 C.ar    1  UNL1        0.1353
     25 N          63.1845   86.8394   12.7212 N.ar    1  UNL1       -0.2295
     26 C          63.8064   85.7030   13.4774 C.ar    1  UNL1        0.0996
     27 C          64.5445   86.2760   14.6509 C.ar    1  UNL1        0.0927
     28 N          64.3787   87.7665   14.6198 N.ar    1  UNL1       -0.3383
     29 H          64.7555   88.4042   15.2683 H       1  UNL1        0.1672
     30 C          63.7076   84.2489   13.1225 C.ar    1  UNL1        0.0192
     31 C          64.2558   83.7569   11.8159 C.ar    1  UNL1        0.0015
     32 C          64.1571   82.3028   11.4609 C.ar    1  UNL1        0.0000
     33 C          63.5100   81.3408   12.4127 C.ar    1  UNL1        0.0000
     34 C          62.9617   81.8328   13.7193 C.ar    1  UNL1        0.0000
     35 C          63.0605   83.2869   14.0742 C.ar    1  UNL1        0.0015
     36 C          64.3457   90.3846   10.8998 C.3     1  UNL1        0.1205
     37 C          66.1113   94.3179   12.1890 C.ar    1  UNL1        0.1397
     38 C          65.4986   94.1814   10.8267 C.ar    1  UNL1        0.0367
     39 C          64.9101   92.8703   10.3969 C.ar    1  UNL1        0.0005
     40 C          64.9342   91.6957   11.3295 C.ar    1  UNL1       -0.0021
     41 C          65.5469   91.8322   12.6918 C.ar    1  UNL1        0.0015
     42 C          66.1355   93.1433   13.1215 C.ar    1  UNL1        0.0477
     43 C          66.7483   93.2797   14.4839 C.2     1  UNL1        0.0758
     44 O          68.2238   93.5111   14.6229 O.co2   1  UNL1       -0.5445
     45 O          65.8855   93.1848   15.7072 O.co2   1  UNL1       -0.5445
     46 C          66.4904   96.8556   11.7812 C.3     1  UNL1        0.2525
     47 O          66.6999   95.6289   12.6187 O.3     1  UNL1       -0.4714
@<TRIPOS>UNITY_ATOM_ATTR
44 1
charge -1
@<TRIPOS>BOND
     1    46    47    1
     2    47    37    1
     3    37    38   ar
     4    38    39   ar
     5    39    40   ar
     6    40    36    1
     7    36     1    1
     8     1     2   am
     9     2     3    2
    10     2     4    1
    11     4     5    1
    12     4     8    1
    13     8     9    1
    14     9    10   ar
    15    10    11    1
    16    10    12   ar
    17    12    13   ar
    18    13    17    1
    19    17    18   am
    20    17    19    2
    21    13    14   ar
    22    14    15   ar
    23    15    16    1
    24     1    22    1
    25    22    23    1
    26    22    24    1
    27    24    25   ar
    28    25    26   ar
    29    26    30    1
    30    30    31   ar
    31    31    32   ar
    32    32    33   ar
    33    33    34   ar
    34    34    35   ar
    35    26    27   ar
    36    27    28   ar
    37    40    41   ar
    38    41    42   ar
    39    42    43    1
    40    43    44   ar
    41    43    45   ar
    42    42    37   ar
    43    15     9   ar
    44    28    24   ar
    45    35    30   ar
    46     5     6    1
    47     5     7    1
    48    18    20    1
    49    18    21    1
    50    28    29    1
@<TRIPOS>MOLECULE
*****
 47 50 0 0 0
SMALL
GASTEIGER

@<TRIPOS>ATOM
      1 N          63.9537   87.9563   13.9706 N.am    1  UNL1       -0.2692
      2 C          63.2092   87.6508   12.7047 C.2     1  UNL1        0.2405
      3 O          63.2217   86.2593   12.1445 O.2     1  UNL1       -0.2734
      4 C          62.4523   88.7366   11.9990 C.3     1  UNL1        0.1329
      5 N          63.1265   90.0397   11.6869 N.3     1  UNL1       -0.3148
      6 H          62.4694   90.6566   11.2092 H       1  UNL1        0.1192
      7 H          63.9324   89.8700   11.0851 H       1  UNL1        0.1192
      8 C          61.0212   88.5193   11.6054 C.3     1  UNL1        0.0505
      9 C          60.5592   88.8840   10.2258 C.ar    1  UNL1       -0.0282
     10 C          59.9118   90.2144    9.9789 C.ar    1  UNL1       -0.0259
     11 C          59.7265   91.1800   11.1116 C.3     1  UNL1        0.0307
     12 C          59.4497   90.5791    8.5992 C.ar    1  UNL1       -0.0001
     13 C          59.6350   89.6134    7.4664 C.ar    1  UNL1        0.0525
     14 C          60.2825   88.2830    7.7134 C.ar    1  UNL1       -0.0001
     15 C          60.7445   87.9183    9.0930 C.ar    1  UNL1       -0.0259
     16 C          61.3919   86.5880    9.3399 C.3     1  UNL1        0.0307
     17 C          59.1730   89.9781    6.0868 C.2     1  UNL1        0.2427
     18 N          57.7075   90.1173    5.7990 N.am    1  UNL1       -0.3253
     19 O          60.1764   90.2035    4.9949 O.2     1  UNL1       -0.2704
     20 H          57.0489   89.9693    6.5157 H       1  UNL1        0.1453
     21 H          57.4042   90.3567    4.8935 H       1  UNL1        0.1453
     22 C          63.9412   89.3477   14.5308 C.3     1  UNL1        0.1322
     23 C          62.8881   89.7481   15.5212 C.3     1  UNL1        0.0297
     24 C          64.9818   90.3388   14.1006 C.ar    1  UNL1        0.1353
     25 N          64.9685   91.1356   12.8299 N.ar    1  UNL1       -0.2295
     26 C          66.1968   91.9963   12.8096 C.ar    1  UNL1        0.0996
     27 C          66.9693   91.7314   14.0678 C.ar    1  UNL1        0.0927
     28 N          66.2183   90.7070   14.8657 N.ar    1  UNL1       -0.3383
     29 H          66.4894   90.3407   15.7384 H       1  UNL1        0.1672
     30 C          66.5846   92.9537   11.7219 C.ar    1  UNL1        0.0192
     31 C          66.2233   94.4051   11.8364 C.ar    1  UNL1        0.0015
     32 C          66.6110   95.3626   10.7488 C.ar    1  UNL1        0.0000
     33 C          67.3602   94.8687    9.5467 C.ar    1  UNL1        0.0000
     34 C          67.7215   93.4174    9.4323 C.ar    1  UNL1        0.0000
     35 C          67.3337   92.4599   10.5199 C.ar    1  UNL1        0.0015
     36 C          64.7106   86.8705   14.6763 C.3     1  UNL1        0.1205
     37 C          63.1223   82.6601   14.6839 C.ar    1  UNL1        0.1397
     38 C          62.7836   83.5915   15.8098 C.ar    1  UNL1        0.0367
     39 C          63.3131   84.9949   15.8073 C.ar    1  UNL1        0.0005
     40 C          64.1812   85.4670   14.6788 C.ar    1  UNL1       -0.0021
     41 C          64.5198   84.5356   13.5529 C.ar    1  UNL1        0.0015
     42 C          63.9904   83.1321   13.5554 C.ar    1  UNL1        0.0477
     43 C          64.3291   82.2007   12.4294 C.2     1  UNL1        0.0758
     44 O          65.0541   82.7164   11.2218 O.co2   1  UNL1       -0.5445
     45 O          63.9429   80.7536   12.5111 O.co2   1  UNL1       -0.5445
     46 C          61.1803   80.9871   14.2598 C.3     1  UNL1        0.2525
     47 O          62.5929   81.2566   14.6864 O.3     1  UNL1       -0.4714
@<TRIPOS>UNITY_ATOM_ATTR
44 1
charge -1
@<TRIPOS>BOND
     1    46    47    1
     2    47    37    1
     3    37    38   ar
     4    38    39   ar
     5    39    40   ar
     6    40    36    1
     7    36     1    1
     8     1     2   am
     9     2     3    2
    10     2     4    1
    11     4     5    1
    12     4     8    1
    13     8     9    1
    14     9    10   ar
    15    10    11    1
    16    10    12   ar
    17    12    13   ar
    18    13    17    1
    19    17    18   am
    20    17    19    2
    21    13    14   ar
    22    14    15   ar
    23    15    16    1
    24     1    22    1
    25    22    23    1
    26    22    24    1
    27    24    25   ar
    28    25    26   ar
    29    26    30    1
    30    30    31   ar
    31    31    32   ar
    32    32    33   ar
    33    33    34   ar
    34    34    35   ar
    35    26    27   ar
    36    27    28   ar
    37    40    41   ar
    38    41    42   ar
    39    42    43    1
    40    43    44   ar
    41    43    45   ar
    42    42    37   ar
    43    15     9   ar
    44    28    24   ar
    45    35    30   ar
    46     5     6    1
    47     5     7    1
    48    18    20    1
    49    18    21    1
    50    28    29    1
