@<TRIPOS>MOLECULE
*****
 21 24 0 0 0
SMALL
GASTEIGER

@<TRIPOS>ATOM
      1 O          60.8823   87.0749    8.6996 O.2     1  UNL1       -0.2864
      2 C          61.6118   86.8723    9.9944 C.ar    1  UNL1        0.2016
      3 C          61.7360   85.4960   10.5780 C.ar    1  UNL1        0.0796
      4 C          62.4656   85.2935   11.8729 C.ar    1  UNL1        0.1484
      5 O          63.0710   86.4671   12.5842 O.2     1  UNL1       -0.4533
      6 C          62.9468   87.8434   12.0006 C.ar    1  UNL1        0.1482
      7 C          62.2173   88.0460   10.7058 C.ar    1  UNL1        0.0735
      8 C          62.0931   89.4222   10.1222 C.ar    1  UNL1        0.0062
      9 C          62.6985   90.5959   10.8335 C.ar    1  UNL1        0.0003
     10 C          63.4281   90.3933   12.1284 C.ar    1  UNL1        0.0029
     11 C          64.0335   91.5670   12.8397 C.ar    1  UNL1        0.0001
     12 C          64.7631   91.3644   14.1345 C.ar    1  UNL1        0.0000
     13 C          64.8872   89.9881   14.7181 C.ar    1  UNL1        0.0001
     14 C          64.2818   88.8145   14.0068 C.ar    1  UNL1        0.0030
     15 C          63.5523   89.0171   12.7120 C.ar    1  UNL1        0.0347
     16 C          62.5897   83.9172   12.4564 C.ar    1  UNL1        0.0347
     17 C          62.8249   82.7398   11.5574 C.ar    1  UNL1        0.0030
     18 C          62.9491   81.3636   12.1410 C.ar    1  UNL1        0.0001
     19 C          62.8381   81.1647   13.6235 C.ar    1  UNL1        0.0000
     20 C          62.6029   82.3422   14.5226 C.ar    1  UNL1        0.0001
     21 C          62.4787   83.7185   13.9391 C.ar    1  UNL1        0.0030
@<TRIPOS>BOND
     1     1     2    2
     2     2     3   ar
     3     3     4   ar
     4     4    16    1
     5    16    17   ar
     6    17    18   ar
     7    18    19   ar
     8    19    20   ar
     9    20    21   ar
    10     4     5   ar
    11     5     6   ar
    12     6     7   ar
    13     7     8   ar
    14     8     9   ar
    15     9    10   ar
    16    10    11   ar
    17    11    12   ar
    18    12    13   ar
    19    13    14   ar
    20    14    15   ar
    21     7     2   ar
    22    15    10   ar
    23    21    16   ar
    24    15     6   ar
@<TRIPOS>MOLECULE
*****
 21 24 0 0 0
SMALL
GASTEIGER

@<TRIPOS>ATOM
      1 O          64.1184   88.0386   13.7292 O.2     1  UNL1       -0.2864
      2 C          63.3362   87.1066   12.8520 C.ar    1  UNL1        0.2016
      3 C          63.3576   85.6306   13.1187 C.ar    1  UNL1        0.0796
      4 C          62.5754   84.6986   12.2414 C.ar    1  UNL1        0.1484
      5 O          61.7718   85.2425   11.0976 O.2     1  UNL1       -0.4533
      6 C          61.7504   86.7185   10.8310 C.ar    1  UNL1        0.1482
      7 C          62.5326   87.6505   11.7081 C.ar    1  UNL1        0.0735
      8 C          62.5112   89.1264   11.4415 C.ar    1  UNL1        0.0062
      9 C          61.7077   89.6704   10.2976 C.ar    1  UNL1        0.0003
     10 C          60.9254   88.7383    9.4204 C.ar    1  UNL1        0.0029
     11 C          60.1218   89.2823    8.2766 C.ar    1  UNL1        0.0001
     12 C          59.3396   88.3502    7.3994 C.ar    1  UNL1        0.0000
     13 C          59.3610   86.8743    7.6661 C.ar    1  UNL1        0.0001
     14 C          60.1646   86.3303    8.8099 C.ar    1  UNL1        0.0030
     15 C          60.9468   87.2624    9.6871 C.ar    1  UNL1        0.0347
     16 C          62.5967   83.2226   12.5081 C.ar    1  UNL1        0.0347
     17 C          62.9755   82.2683   11.4146 C.ar    1  UNL1        0.0030
     18 C          62.9969   80.7924   11.6812 C.ar    1  UNL1        0.0001
     19 C          62.6395   80.2707   13.0414 C.ar    1  UNL1        0.0000
     20 C          62.2607   81.2250   14.1350 C.ar    1  UNL1        0.0001
     21 C          62.2393   82.7010   13.8683 C.ar    1  UNL1        0.0030
@<TRIPOS>BOND
     1     1     2    2
     2     2     3   ar
     3     3     4   ar
     4     4    16    1
     5    16    17   ar
     6    17    18   ar
     7    18    19   ar
     8    19    20   ar
     9    20    21   ar
    10     4     5   ar
    11     5     6   ar
    12     6     7   ar
    13     7     8   ar
    14     8     9   ar
    15     9    10   ar
    16    10    11   ar
    17    11    12   ar
    18    12    13   ar
    19    13    14   ar
    20    14    15   ar
    21     7     2   ar
    22    15    10   ar
    23    21    16   ar
    24    15     6   ar
@<TRIPOS>MOLECULE
*****
 21 24 0 0 0
SMALL
GASTEIGER

@<TRIPOS>ATOM
      1 O          63.9900   89.0575   13.4820 O.2     1  UNL1       -0.2864
      2 C          63.3333   87.9532   12.7080 C.ar    1  UNL1        0.2016
      3 C          62.4591   88.2778   11.5331 C.ar    1  UNL1        0.0796
      4 C          61.8024   87.1733   10.7591 C.ar    1  UNL1        0.1484
      5 O          62.0199   85.7444   11.1599 O.2     1  UNL1       -0.4533
      6 C          62.8942   85.4198   12.3348 C.ar    1  UNL1        0.1482
      7 C          63.5509   86.5241   13.1088 C.ar    1  UNL1        0.0735
      8 C          64.4251   86.1995   14.2837 C.ar    1  UNL1        0.0062
      9 C          64.6427   84.7706   14.6846 C.ar    1  UNL1        0.0003
     10 C          63.9860   83.6661   13.9105 C.ar    1  UNL1        0.0029
     11 C          64.2035   82.2372   14.3114 C.ar    1  UNL1        0.0001
     12 C          63.5468   81.1329   13.5374 C.ar    1  UNL1        0.0000
     13 C          62.6726   81.4575   12.3625 C.ar    1  UNL1        0.0001
     14 C          62.4550   82.8864   11.9617 C.ar    1  UNL1        0.0030
     15 C          63.1117   83.9907   12.7357 C.ar    1  UNL1        0.0347
     16 C          60.9281   87.4979    9.5842 C.ar    1  UNL1        0.0347
     17 C          60.2700   86.3937    8.8113 C.ar    1  UNL1        0.0030
     18 C          59.3958   86.7183    7.6364 C.ar    1  UNL1        0.0001
     19 C          59.1796   88.1471    7.2344 C.ar    1  UNL1        0.0000
     20 C          59.8378   89.2515    8.0074 C.ar    1  UNL1        0.0001
     21 C          60.7120   88.9269    9.1823 C.ar    1  UNL1        0.0030
@<TRIPOS>BOND
     1     1     2    2
     2     2     3   ar
     3     3     4   ar
     4     4    16    1
     5    16    17   ar
     6    17    18   ar
     7    18    19   ar
     8    19    20   ar
     9    20    21   ar
    10     4     5   ar
    11     5     6   ar
    12     6     7   ar
    13     7     8   ar
    14     8     9   ar
    15     9    10   ar
    16    10    11   ar
    17    11    12   ar
    18    12    13   ar
    19    13    14   ar
    20    14    15   ar
    21     7     2   ar
    22    15    10   ar
    23    21    16   ar
    24    15     6   ar
@<TRIPOS>MOLECULE
*****
 21 24 0 0 0
SMALL
GASTEIGER

@<TRIPOS>ATOM
      1 O          61.6549   89.9236    9.8273 O.2     1  UNL1       -0.2864
      2 C          62.3759   89.3622   11.0168 C.ar    1  UNL1        0.2016
      3 C          63.0428   90.2846   11.9937 C.ar    1  UNL1        0.0796
      4 C          63.7639   89.7230   13.1832 C.ar    1  UNL1        0.1484
      5 O          63.8180   88.2392   13.3957 O.2     1  UNL1       -0.4533
      6 C          63.1511   87.3168   12.4188 C.ar    1  UNL1        0.1482
      7 C          62.4300   87.8782   11.2293 C.ar    1  UNL1        0.0735
      8 C          61.7631   86.9558   10.2524 C.ar    1  UNL1        0.0062
      9 C          61.8172   85.4720   10.4649 C.ar    1  UNL1        0.0003
     10 C          62.5383   84.9105   11.6544 C.ar    1  UNL1        0.0029
     11 C          62.5924   83.4266   11.8669 C.ar    1  UNL1        0.0001
     12 C          63.3134   82.8651   13.0564 C.ar    1  UNL1        0.0000
     13 C          63.9803   83.7875   14.0333 C.ar    1  UNL1        0.0001
     14 C          63.9262   85.2714   13.8208 C.ar    1  UNL1        0.0030
     15 C          63.2052   85.8328   12.6314 C.ar    1  UNL1        0.0347
     16 C          64.4308   90.6454   14.1602 C.ar    1  UNL1        0.0347
     17 C          65.7024   91.3456   13.7825 C.ar    1  UNL1        0.0030
     18 C          66.3693   92.2680   14.7595 C.ar    1  UNL1        0.0001
     19 C          65.7646   92.4902   16.1141 C.ar    1  UNL1        0.0000
     20 C          64.4929   91.7900   16.4917 C.ar    1  UNL1        0.0001
     21 C          63.8260   90.8676   15.5148 C.ar    1  UNL1        0.0030
@<TRIPOS>BOND
     1     1     2    2
     2     2     3   ar
     3     3     4   ar
     4     4    16    1
     5    16    17   ar
     6    17    18   ar
     7    18    19   ar
     8    19    20   ar
     9    20    21   ar
    10     4     5   ar
    11     5     6   ar
    12     6     7   ar
    13     7     8   ar
    14     8     9   ar
    15     9    10   ar
    16    10    11   ar
    17    11    12   ar
    18    12    13   ar
    19    13    14   ar
    20    14    15   ar
    21     7     2   ar
    22    15    10   ar
    23    21    16   ar
    24    15     6   ar
@<TRIPOS>MOLECULE
*****
 21 24 0 0 0
SMALL
GASTEIGER

@<TRIPOS>ATOM
      1 O          64.4473   84.7268   14.3489 O.2     1  UNL1       -0.2864
      2 C          64.0194   86.0696   13.8353 C.ar    1  UNL1        0.2016
      3 C          64.4364   87.3165   14.5573 C.ar    1  UNL1        0.0796
      4 C          64.0085   88.6593   14.0437 C.ar    1  UNL1        0.1484
      5 O          63.1636   88.7552   12.8080 O.2     1  UNL1       -0.4533
      6 C          62.7465   87.5083   12.0860 C.ar    1  UNL1        0.1482
      7 C          63.1744   86.1655   12.5996 C.ar    1  UNL1        0.0735
      8 C          62.7574   84.9187   11.8775 C.ar    1  UNL1        0.0062
      9 C          61.9125   85.0146   10.6418 C.ar    1  UNL1        0.0003
     10 C          61.4846   86.3574   10.1282 C.ar    1  UNL1        0.0029
     11 C          60.6396   86.4533    8.8925 C.ar    1  UNL1        0.0001
     12 C          60.2118   87.7961    8.3790 C.ar    1  UNL1        0.0000
     13 C          60.6288   89.0429    9.1010 C.ar    1  UNL1        0.0001
     14 C          61.4737   88.9470   10.3367 C.ar    1  UNL1        0.0030
     15 C          61.9016   87.6043   10.8503 C.ar    1  UNL1        0.0347
     16 C          64.4255   89.9062   14.7658 C.ar    1  UNL1        0.0347
     17 C          65.6157   90.6856   14.2905 C.ar    1  UNL1        0.0030
     18 C          66.0328   91.9324   15.0126 C.ar    1  UNL1        0.0001
     19 C          65.2596   92.3999   16.2099 C.ar    1  UNL1        0.0000
     20 C          64.0693   91.6205   16.6852 C.ar    1  UNL1        0.0001
     21 C          63.6522   90.3737   15.9631 C.ar    1  UNL1        0.0030
@<TRIPOS>BOND
     1     1     2    2
     2     2     3   ar
     3     3     4   ar
     4     4    16    1
     5    16    17   ar
     6    17    18   ar
     7    18    19   ar
     8    19    20   ar
     9    20    21   ar
    10     4     5   ar
    11     5     6   ar
    12     6     7   ar
    13     7     8   ar
    14     8     9   ar
    15     9    10   ar
    16    10    11   ar
    17    11    12   ar
    18    12    13   ar
    19    13    14   ar
    20    14    15   ar
    21     7     2   ar
    22    15    10   ar
    23    21    16   ar
    24    15     6   ar
@<TRIPOS>MOLECULE
*****
 21 24 0 0 0
SMALL
GASTEIGER

@<TRIPOS>ATOM
      1 O          64.0017   88.9064   13.5113 O.2     1  UNL1       -0.2864
      2 C          63.2709   87.8711   12.7089 C.ar    1  UNL1        0.2016
      3 C          63.3691   86.4226   13.0863 C.ar    1  UNL1        0.0796
      4 C          62.6383   85.3873   12.2838 C.ar    1  UNL1        0.1484
      5 O          61.8093   85.8003   11.1040 O.2     1  UNL1       -0.4533
      6 C          61.7111   87.2487   10.7265 C.ar    1  UNL1        0.1482
      7 C          62.4419   88.2841   11.5289 C.ar    1  UNL1        0.0735
      8 C          62.3437   89.7325   11.1515 C.ar    1  UNL1        0.0062
      9 C          61.5147   90.1456    9.9716 C.ar    1  UNL1        0.0003
     10 C          60.7839   89.1102    9.1691 C.ar    1  UNL1        0.0029
     11 C          59.9549   89.5232    7.9893 C.ar    1  UNL1        0.0001
     12 C          59.2241   88.4879    7.1869 C.ar    1  UNL1        0.0000
     13 C          59.3223   87.0395    7.5643 C.ar    1  UNL1        0.0001
     14 C          60.1513   86.6264    8.7442 C.ar    1  UNL1        0.0030
     15 C          60.8821   87.6618    9.5466 C.ar    1  UNL1        0.0347
     16 C          62.7365   83.9389   12.6612 C.ar    1  UNL1        0.0347
     17 C          63.1745   83.5518   14.0426 C.ar    1  UNL1        0.0030
     18 C          63.2727   82.1034   14.4201 C.ar    1  UNL1        0.0001
     19 C          62.9328   81.0420   13.4161 C.ar    1  UNL1        0.0000
     20 C          62.4948   81.4290   12.0346 C.ar    1  UNL1        0.0001
     21 C          62.3966   82.8775   11.6572 C.ar    1  UNL1        0.0030
@<TRIPOS>BOND
     1     1     2    2
     2     2     3   ar
     3     3     4   ar
     4     4    16    1
     5    16    17   ar
     6    17    18   ar
     7    18    19   ar
     8    19    20   ar
     9    20    21   ar
    10     4     5   ar
    11     5     6   ar
    12     6     7   ar
    13     7     8   ar
    14     8     9   ar
    15     9    10   ar
    16    10    11   ar
    17    11    12   ar
    18    12    13   ar
    19    13    14   ar
    20    14    15   ar
    21     7     2   ar
    22    15    10   ar
    23    21    16   ar
    24    15     6   ar
@<TRIPOS>MOLECULE
*****
 21 24 0 0 0
SMALL
GASTEIGER

@<TRIPOS>ATOM
      1 O          63.6496   90.6676   12.8044 O.2     1  UNL1       -0.2864
      2 C          63.1291   89.3475   12.3182 C.ar    1  UNL1        0.2016
      3 C          62.2433   89.2898   11.1091 C.ar    1  UNL1        0.0796
      4 C          61.7228   87.9696   10.6230 C.ar    1  UNL1        0.1484
      5 O          62.0881   86.7072   11.3460 O.2     1  UNL1       -0.4533
      6 C          62.9738   86.7649   12.5552 C.ar    1  UNL1        0.1482
      7 C          63.4943   88.0850   13.0413 C.ar    1  UNL1        0.0735
      8 C          64.3800   88.1427   14.2505 C.ar    1  UNL1        0.0062
      9 C          64.7452   86.8803   14.9736 C.ar    1  UNL1        0.0003
     10 C          64.2247   85.5601   14.4875 C.ar    1  UNL1        0.0029
     11 C          64.5900   84.2977   15.2106 C.ar    1  UNL1        0.0001
     12 C          64.0695   82.9776   14.7245 C.ar    1  UNL1        0.0000
     13 C          63.1837   82.9199   13.5153 C.ar    1  UNL1        0.0001
     14 C          62.8185   84.1823   12.7922 C.ar    1  UNL1        0.0030
     15 C          63.3390   85.5024   13.2783 C.ar    1  UNL1        0.0347
     16 C          60.8371   87.9119    9.4138 C.ar    1  UNL1        0.0347
     17 C          60.3851   89.1808    8.7539 C.ar    1  UNL1        0.0030
     18 C          59.4993   89.1231    7.5447 C.ar    1  UNL1        0.0001
     19 C          59.0656   87.7964    6.9954 C.ar    1  UNL1        0.0000
     20 C          59.5177   86.5274    7.6552 C.ar    1  UNL1        0.0001
     21 C          60.4034   86.5851    8.8644 C.ar    1  UNL1        0.0030
@<TRIPOS>BOND
     1     1     2    2
     2     2     3   ar
     3     3     4   ar
     4     4    16    1
     5    16    17   ar
     6    17    18   ar
     7    18    19   ar
     8    19    20   ar
     9    20    21   ar
    10     4     5   ar
    11     5     6   ar
    12     6     7   ar
    13     7     8   ar
    14     8     9   ar
    15     9    10   ar
    16    10    11   ar
    17    11    12   ar
    18    12    13   ar
    19    13    14   ar
    20    14    15   ar
    21     7     2   ar
    22    15    10   ar
    23    21    16   ar
    24    15     6   ar
@<TRIPOS>MOLECULE
*****
 21 24 0 0 0
SMALL
GASTEIGER

@<TRIPOS>ATOM
      1 O          63.9064   88.0890   14.9297 O.2     1  UNL1       -0.2864
      2 C          63.7369   88.8436   13.6445 C.ar    1  UNL1        0.2016
      3 C          62.8691   88.2853   12.5558 C.ar    1  UNL1        0.0796
      4 C          62.6996   89.0401   11.2706 C.ar    1  UNL1        0.1484
      5 O          63.3978   90.3530   11.0741 O.2     1  UNL1       -0.4533
      6 C          64.2655   90.9113   12.1628 C.ar    1  UNL1        0.1482
      7 C          64.4351   90.1567   13.4480 C.ar    1  UNL1        0.0735
      8 C          65.3029   90.7150   14.5367 C.ar    1  UNL1        0.0062
      9 C          66.0010   92.0279   14.3402 C.ar    1  UNL1        0.0003
     10 C          65.8315   92.7826   13.0550 C.ar    1  UNL1        0.0029
     11 C          66.5297   94.0956   12.8586 C.ar    1  UNL1        0.0001
     12 C          66.3601   94.8502   11.5734 C.ar    1  UNL1        0.0000
     13 C          65.4924   94.2919   10.4847 C.ar    1  UNL1        0.0001
     14 C          64.7942   92.9790   10.6811 C.ar    1  UNL1        0.0030
     15 C          64.9637   92.2243   11.9663 C.ar    1  UNL1        0.0347
     16 C          61.8318   88.4818   10.1819 C.ar    1  UNL1        0.0347
     17 C          60.8346   89.3639    9.4910 C.ar    1  UNL1        0.0030
     18 C          59.9668   88.8056    8.4023 C.ar    1  UNL1        0.0001
     19 C          60.0963   87.3652    8.0044 C.ar    1  UNL1        0.0000
     20 C          61.0935   86.4829    8.6953 C.ar    1  UNL1        0.0001
     21 C          61.9613   87.0412    9.7840 C.ar    1  UNL1        0.0030
@<TRIPOS>BOND
     1     1     2    2
     2     2     3   ar
     3     3     4   ar
     4     4    16    1
     5    16    17   ar
     6    17    18   ar
     7    18    19   ar
     8    19    20   ar
     9    20    21   ar
    10     4     5   ar
    11     5     6   ar
    12     6     7   ar
    13     7     8   ar
    14     8     9   ar
    15     9    10   ar
    16    10    11   ar
    17    11    12   ar
    18    12    13   ar
    19    13    14   ar
    20    14    15   ar
    21     7     2   ar
    22    15    10   ar
    23    21    16   ar
    24    15     6   ar
@<TRIPOS>MOLECULE
*****
 21 24 0 0 0
SMALL
GASTEIGER

@<TRIPOS>ATOM
      1 O          62.9546   85.9701   17.7153 O.2     1  UNL1       -0.2864
      2 C          63.2393   86.2122   16.2627 C.ar    1  UNL1        0.2016
      3 C          63.5748   87.5937   15.7842 C.ar    1  UNL1        0.0796
      4 C          63.8596   87.8357   14.3314 C.ar    1  UNL1        0.1484
      5 O          63.8088   86.6963   13.3572 O.2     1  UNL1       -0.4533
      6 C          63.4733   85.3148   13.8357 C.ar    1  UNL1        0.1482
      7 C          63.1886   85.0727   15.2884 C.ar    1  UNL1        0.0735
      8 C          62.8531   83.6913   15.7668 C.ar    1  UNL1        0.0062
      9 C          62.8024   82.5518   14.7926 C.ar    1  UNL1        0.0003
     10 C          63.0871   82.7939   13.3399 C.ar    1  UNL1        0.0029
     11 C          63.0364   81.6545   12.3657 C.ar    1  UNL1        0.0001
     12 C          63.3211   81.8966   10.9130 C.ar    1  UNL1        0.0000
     13 C          63.6566   83.2781   10.4346 C.ar    1  UNL1        0.0001
     14 C          63.7073   84.4175   11.4088 C.ar    1  UNL1        0.0030
     15 C          63.4226   84.1754   12.8614 C.ar    1  UNL1        0.0347
     16 C          64.1950   89.2172   13.8530 C.ar    1  UNL1        0.0347
     17 C          65.1565   90.0671   14.6297 C.ar    1  UNL1        0.0030
     18 C          65.4920   91.4486   14.1512 C.ar    1  UNL1        0.0001
     19 C          64.8660   91.9802   12.8961 C.ar    1  UNL1        0.0000
     20 C          63.9044   91.1304   12.1193 C.ar    1  UNL1        0.0001
     21 C          63.5690   89.7489   12.5978 C.ar    1  UNL1        0.0030
@<TRIPOS>BOND
     1     1     2    2
     2     2     3   ar
     3     3     4   ar
     4     4    16    1
     5    16    17   ar
     6    17    18   ar
     7    18    19   ar
     8    19    20   ar
     9    20    21   ar
    10     4     5   ar
    11     5     6   ar
    12     6     7   ar
    13     7     8   ar
    14     8     9   ar
    15     9    10   ar
    16    10    11   ar
    17    11    12   ar
    18    12    13   ar
    19    13    14   ar
    20    14    15   ar
    21     7     2   ar
    22    15    10   ar
    23    21    16   ar
    24    15     6   ar
