@<TRIPOS>MOLECULE
*****
 34 38 0 0 0
SMALL
GASTEIGER

@<TRIPOS>ATOM
      1 C          63.5393   88.6535   12.8319 C.ar    1  UNL1        0.1389
      2 C          62.8034   87.9650   11.7208 C.ar    1  UNL1        0.0397
      3 C          61.8004   88.7231   10.9028 C.ar    1  UNL1        0.0353
      4 C          61.5333   90.1698   11.1958 C.ar    1  UNL1        0.0779
      5 C          62.2693   90.8582   12.3068 C.ar    1  UNL1        0.0219
      6 C          63.2722   90.1001   13.1248 C.ar    1  UNL1        0.0394
      7 N          60.5303   90.9279   10.3777 N.2     1  UNL1       -0.2641
      8 C          59.7944   90.2395    9.2667 C.3     1  UNL1        0.1696
      9 C          60.0615   88.7928    8.9737 C.2     1  UNL1        0.0912
     10 N          59.4941   87.8546    7.9500 N.am    1  UNL1       -0.1627
     11 C          60.1464   86.5167    8.1354 C.2     1  UNL1        0.3350
     12 O          59.8758   85.2840    7.3247 O.2     1  UNL1       -0.2497
     13 N          61.1170   86.6279    9.2736 N.am    1  UNL1       -0.2163
     14 C          61.0645   88.0346    9.7917 C.2     1  UNL1        0.0744
     15 C          64.0082   90.7886   14.2359 C.ar    1  UNL1        0.0526
     16 C          65.0621   91.8437   14.0743 C.ar    1  UNL1        0.1007
     17 C          65.5652   92.3954   12.7734 C.3     1  UNL1        0.0557
     18 N          65.5246   92.2501   15.4421 N.ar    1  UNL1       -0.0817
     19 O          64.7565   91.4462   16.4491 O.2     1  UNL1       -0.3581
     20 C          63.8193   90.5430   15.7036 C.ar    1  UNL1        0.1545
     21 C          62.8614   89.5657   16.3178 C.3     1  UNL1        0.0754
     22 C          61.9872   85.5259    9.8011 C.ar    1  UNL1        0.0938
     23 C          61.8652   85.0938   11.2323 C.ar    1  UNL1        0.0184
     24 C          62.7355   83.9918   11.7598 C.ar    1  UNL1        0.0015
     25 C          63.7278   83.3220   10.8562 C.ar    1  UNL1        0.0032
     26 C          63.8498   83.7541    9.4250 C.ar    1  UNL1        0.0385
     27 C          62.9795   84.8561    8.8974 C.ar    1  UNL1        0.1607
     28 O          63.1015   85.2882    7.4662 O.3     1  UNL1       -0.4032
     29 C          62.5099   84.4457    6.3753 C.3     1  UNL1        0.5753
     30 F          61.9183   83.6032    5.2843 F       1  UNL1       -0.1328
     31 F          63.3125   85.2003    5.3573 F       1  UNL1       -0.1328
     32 F          61.7073   83.6910    7.3933 F       1  UNL1       -0.1328
     33 C          64.1462   86.6156   14.3248 C.3     1  UNL1        0.2525
     34 O          64.5423   87.8953   13.6499 O.3     1  UNL1       -0.4714
@<TRIPOS>BOND
     1    33    34    1
     2    34     1    1
     3     1     2   ar
     4     2     3   ar
     5     3     4   ar
     6     4     5   ar
     7     5     6   ar
     8     6    15    1
     9    15    16   ar
    10    16    17    1
    11    16    18   ar
    12    18    19   ar
    13    19    20   ar
    14    20    21    1
    15     4     7    2
    16     7     8    1
    17     8     9    1
    18     9    10    2
    19    10    11    1
    20    11    12    2
    21    11    13   am
    22    13    22    1
    23    22    23   ar
    24    23    24   ar
    25    24    25   ar
    26    25    26   ar
    27    26    27   ar
    28    27    28    1
    29    28    29    1
    30    29    30    1
    31    29    31    1
    32    29    32    1
    33    13    14    1
    34     6     1   ar
    35    20    15   ar
    36    14     9    1
    37    14     3    2
    38    27    22   ar
@<TRIPOS>MOLECULE
*****
 34 38 0 0 0
SMALL
GASTEIGER

@<TRIPOS>ATOM
      1 C          63.6266   85.8543   13.3514 C.ar    1  UNL1        0.1389
      2 C          63.4343   87.2080   12.7344 C.ar    1  UNL1        0.0397
      3 C          62.5990   87.3566   11.4974 C.ar    1  UNL1        0.0353
      4 C          61.9560   86.1516   10.8774 C.ar    1  UNL1        0.0779
      5 C          62.1483   84.7980   11.4943 C.ar    1  UNL1        0.0219
      6 C          62.9836   84.6494   12.7313 C.ar    1  UNL1        0.0394
      7 N          61.1207   86.3003    9.6404 N.2     1  UNL1       -0.2641
      8 C          60.9284   87.6539    9.0234 C.3     1  UNL1        0.1696
      9 C          61.5714   88.8589    9.6434 C.2     1  UNL1        0.0912
     10 N          61.5608   90.3098    9.2629 N.am    1  UNL1       -0.1627
     11 C          62.3895   91.0578   10.2647 C.2     1  UNL1        0.3350
     12 O          62.6498   92.5351   10.2664 O.2     1  UNL1       -0.2497
     13 N          62.9124   90.0693   11.2643 N.am    1  UNL1       -0.2163
     14 C          62.4067   88.7103   10.8804 C.2     1  UNL1        0.0744
     15 C          63.1759   83.2956   13.3483 C.ar    1  UNL1        0.0526
     16 C          63.8717   82.1282   12.7136 C.ar    1  UNL1        0.1007
     17 C          64.4975   82.1094   11.3505 C.3     1  UNL1        0.0557
     18 N          63.8319   80.9828   13.6813 N.ar    1  UNL1       -0.0817
     19 O          63.1114   81.4424   14.9141 O.2     1  UNL1       -0.3581
     20 C          62.7060   82.8718   14.7083 C.ar    1  UNL1        0.1545
     21 C          61.9614   83.7271   15.6901 C.3     1  UNL1        0.0754
     22 C          63.7872   90.3844   12.4414 C.ar    1  UNL1        0.0938
     23 C          63.4696   89.8056   13.7882 C.ar    1  UNL1        0.0184
     24 C          64.3445   90.1207   14.9652 C.ar    1  UNL1        0.0015
     25 C          65.5370   91.0147   14.7954 C.ar    1  UNL1        0.0032
     26 C          65.8546   91.5935   13.4485 C.ar    1  UNL1        0.0385
     27 C          64.9797   91.2784   12.2715 C.ar    1  UNL1        0.1607
     28 O          65.2973   91.8572   10.9246 O.3     1  UNL1       -0.4032
     29 C          66.3066   92.9600   10.8012 C.3     1  UNL1        0.5753
     30 F          67.3159   94.0627   10.6778 F       1  UNL1       -0.1328
     31 F          67.3616   91.9546   10.4461 F       1  UNL1       -0.1328
     32 F          65.2516   93.9654   11.1564 F       1  UNL1       -0.1328
     33 C          64.0825   86.4367   15.8419 C.3     1  UNL1        0.2525
     34 O          64.4619   85.7057   14.5883 O.3     1  UNL1       -0.4714
@<TRIPOS>BOND
     1    33    34    1
     2    34     1    1
     3     1     2   ar
     4     2     3   ar
     5     3     4   ar
     6     4     5   ar
     7     5     6   ar
     8     6    15    1
     9    15    16   ar
    10    16    17    1
    11    16    18   ar
    12    18    19   ar
    13    19    20   ar
    14    20    21    1
    15     4     7    2
    16     7     8    1
    17     8     9    1
    18     9    10    2
    19    10    11    1
    20    11    12    2
    21    11    13   am
    22    13    22    1
    23    22    23   ar
    24    23    24   ar
    25    24    25   ar
    26    25    26   ar
    27    26    27   ar
    28    27    28    1
    29    28    29    1
    30    29    30    1
    31    29    31    1
    32    29    32    1
    33    13    14    1
    34     6     1   ar
    35    20    15   ar
    36    14     9    1
    37    14     3    2
    38    27    22   ar
@<TRIPOS>MOLECULE
*****
 34 38 0 0 0
SMALL
GASTEIGER

@<TRIPOS>ATOM
      1 C          63.4771   90.2993   11.4795 C.ar    1  UNL1        0.1389
      2 C          64.5896   91.0193   12.1823 C.ar    1  UNL1        0.0397
      3 C          64.5435   91.2001   13.6707 C.ar    1  UNL1        0.0353
      4 C          63.3850   90.6609   14.4562 C.ar    1  UNL1        0.0779
      5 C          62.2726   89.9409   13.7534 C.ar    1  UNL1        0.0219
      6 C          62.3187   89.7601   12.2650 C.ar    1  UNL1        0.0394
      7 N          63.3390   90.8418   15.9445 N.2     1  UNL1       -0.2641
      8 C          64.4514   91.5618   16.6474 C.3     1  UNL1        0.1696
      9 C          65.6100   92.1010   15.8618 C.2     1  UNL1        0.0912
     10 N          66.8428   92.8484   16.2763 N.am    1  UNL1       -0.1627
     11 C          67.6506   93.1294   15.0441 C.2     1  UNL1        0.3350
     12 O          68.9618   93.8564   14.9964 O.2     1  UNL1       -0.2497
     13 N          66.9173   92.5558   13.8681 N.am    1  UNL1       -0.2163
     14 C          65.6561   91.9202   14.3735 C.2     1  UNL1        0.0744
     15 C          61.2061   89.0400   11.5622 C.ar    1  UNL1        0.0526
     16 C          61.2451   87.6237   11.0697 C.ar    1  UNL1        0.1007
     17 C          62.4035   86.6788   11.1934 C.3     1  UNL1        0.0557
     18 N          59.9224   87.3183   10.4317 N.ar    1  UNL1       -0.0817
     19 O          59.0659   88.5458   10.5299 O.2     1  UNL1       -0.3581
     20 C          59.8593   89.6098   11.2286 C.ar    1  UNL1        0.1545
     21 C          59.3884   90.9997   11.5393 C.3     1  UNL1        0.0754
     22 C          67.3662   92.6085   12.4378 C.ar    1  UNL1        0.0938
     23 C          68.3117   91.5706   11.9098 C.ar    1  UNL1        0.0184
     24 C          68.7607   91.6233   10.4796 C.ar    1  UNL1        0.0015
     25 C          68.2641   92.7138    9.5773 C.ar    1  UNL1        0.0032
     26 C          67.3186   93.7517   10.1053 C.ar    1  UNL1        0.0385
     27 C          66.8696   93.6990   11.5356 C.ar    1  UNL1        0.1607
     28 O          65.9241   94.7369   12.0636 O.3     1  UNL1       -0.4032
     29 C          65.3855   95.7960   11.1481 C.3     1  UNL1        0.5753
     30 F          64.8469   96.8551   10.2326 F       1  UNL1       -0.1328
     31 F          64.7640   94.7362   10.2877 F       1  UNL1       -0.1328
     32 F          66.0071   96.8559   12.0085 F       1  UNL1       -0.1328
     33 C          62.5516   90.8533    9.1159 C.3     1  UNL1        0.2525
     34 O          63.5232   90.1185    9.9912 O.3     1  UNL1       -0.4714
@<TRIPOS>BOND
     1    33    34    1
     2    34     1    1
     3     1     2   ar
     4     2     3   ar
     5     3     4   ar
     6     4     5   ar
     7     5     6   ar
     8     6    15    1
     9    15    16   ar
    10    16    17    1
    11    16    18   ar
    12    18    19   ar
    13    19    20   ar
    14    20    21    1
    15     4     7    2
    16     7     8    1
    17     8     9    1
    18     9    10    2
    19    10    11    1
    20    11    12    2
    21    11    13   am
    22    13    22    1
    23    22    23   ar
    24    23    24   ar
    25    24    25   ar
    26    25    26   ar
    27    26    27   ar
    28    27    28    1
    29    28    29    1
    30    29    30    1
    31    29    31    1
    32    29    32    1
    33    13    14    1
    34     6     1   ar
    35    20    15   ar
    36    14     9    1
    37    14     3    2
    38    27    22   ar
@<TRIPOS>MOLECULE
*****
 34 38 0 0 0
SMALL
GASTEIGER

@<TRIPOS>ATOM
      1 C          63.1175   85.2636   12.3282 C.ar    1  UNL1        0.1389
      2 C          63.1781   86.5886   13.0287 C.ar    1  UNL1        0.0397
      3 C          63.2399   86.6429   14.5264 C.ar    1  UNL1        0.0353
      4 C          63.2411   85.3723   15.3236 C.ar    1  UNL1        0.0779
      5 C          63.1805   84.0474   14.6231 C.ar    1  UNL1        0.0219
      6 C          63.1187   83.9930   13.1254 C.ar    1  UNL1        0.0394
      7 N          63.3029   85.4267   16.8214 N.2     1  UNL1       -0.2641
      8 C          63.3635   86.7516   17.5219 C.3     1  UNL1        0.1696
      9 C          63.3623   88.0223   16.7247 C.2     1  UNL1        0.0912
     10 N          63.4140   89.4644   17.1344 N.am    1  UNL1       -0.1627
     11 C          63.3841   90.3011   15.8900 C.2     1  UNL1        0.3350
     12 O          63.4183   91.7997   15.8342 O.2     1  UNL1       -0.2497
     13 N          63.3139   89.3764   14.7111 N.am    1  UNL1       -0.2163
     14 C          63.3005   87.9680   15.2270 C.2     1  UNL1        0.0744
     15 C          63.0581   82.6680   12.4248 C.ar    1  UNL1        0.0526
     16 C          63.7663   82.3105   11.1518 C.ar    1  UNL1        0.1007
     17 C          64.6594   83.2153   10.3557 C.3     1  UNL1        0.0557
     18 N          63.4246   80.8894   10.8146 N.ar    1  UNL1       -0.0817
     19 O          62.5052   80.3686   11.8793 O.2     1  UNL1       -0.3581
     20 C          62.2787   81.4678   12.8744 C.ar    1  UNL1        0.1545
     21 C          61.4231   81.3819   14.1034 C.3     1  UNL1        0.0754
     22 C          63.2657   89.7878   13.2694 C.ar    1  UNL1        0.0938
     23 C          62.4091   89.0275   12.3008 C.ar    1  UNL1        0.0184
     24 C          62.3609   89.4389   10.8591 C.ar    1  UNL1        0.0015
     25 C          63.1693   90.6105   10.3860 C.ar    1  UNL1        0.0032
     26 C          64.0259   91.3707   11.3546 C.ar    1  UNL1        0.0385
     27 C          64.0741   90.9593   12.7963 C.ar    1  UNL1        0.1607
     28 O          64.9308   91.7196   13.7649 O.3     1  UNL1       -0.4032
     29 C          66.4253   91.6294   13.6754 C.3     1  UNL1        0.5753
     30 F          67.9199   91.5393   13.5859 F       1  UNL1       -0.1328
     31 F          66.4392   92.7955   12.7321 F       1  UNL1       -0.1328
     32 F          66.4116   90.4633   14.6188 F       1  UNL1       -0.1328
     33 C          61.8624   85.7614   10.1085 C.3     1  UNL1        0.2525
     34 O          63.0557   85.2092   10.8304 O.3     1  UNL1       -0.4714
@<TRIPOS>BOND
     1    33    34    1
     2    34     1    1
     3     1     2   ar
     4     2     3   ar
     5     3     4   ar
     6     4     5   ar
     7     5     6   ar
     8     6    15    1
     9    15    16   ar
    10    16    17    1
    11    16    18   ar
    12    18    19   ar
    13    19    20   ar
    14    20    21    1
    15     4     7    2
    16     7     8    1
    17     8     9    1
    18     9    10    2
    19    10    11    1
    20    11    12    2
    21    11    13   am
    22    13    22    1
    23    22    23   ar
    24    23    24   ar
    25    24    25   ar
    26    25    26   ar
    27    26    27   ar
    28    27    28    1
    29    28    29    1
    30    29    30    1
    31    29    31    1
    32    29    32    1
    33    13    14    1
    34     6     1   ar
    35    20    15   ar
    36    14     9    1
    37    14     3    2
    38    27    22   ar
@<TRIPOS>MOLECULE
*****
 34 38 0 0 0
SMALL
GASTEIGER

@<TRIPOS>ATOM
      1 C          64.2489   87.0772   14.0064 C.ar    1  UNL1        0.1389
      2 C          64.3474   88.4344   13.3754 C.ar    1  UNL1        0.0397
      3 C          63.5083   88.7673   12.1774 C.ar    1  UNL1        0.0353
      4 C          62.5706   87.7430   11.6105 C.ar    1  UNL1        0.0779
      5 C          62.4720   86.3858   12.2416 C.ar    1  UNL1        0.0219
      6 C          63.3112   86.0529   13.4395 C.ar    1  UNL1        0.0394
      7 N          61.7314   88.0758   10.4126 N.2     1  UNL1       -0.2641
      8 C          61.8299   89.4330    9.7816 C.3     1  UNL1        0.1696
      9 C          62.7677   90.4575   10.3485 C.2     1  UNL1        0.0912
     10 N          63.0774   91.8680    9.9431 N.am    1  UNL1       -0.1627
     11 C          64.1079   92.4069   10.8905 C.2     1  UNL1        0.3350
     12 O          64.7062   93.7819   10.8534 O.2     1  UNL1       -0.2497
     13 N          64.4351   91.3295   11.8814 N.am    1  UNL1       -0.2163
     14 C          63.6068   90.1246   11.5464 C.2     1  UNL1        0.0744
     15 C          63.2126   84.6956   14.0705 C.ar    1  UNL1        0.0526
     16 C          63.6353   83.3996   13.4448 C.ar    1  UNL1        0.1007
     17 C          64.2309   83.2332   12.0782 C.3     1  UNL1        0.0557
     18 N          63.3580   82.2991   14.4256 N.ar    1  UNL1       -0.0817
     19 O          62.7638   82.9150   15.6576 O.2     1  UNL1       -0.3581
     20 C          62.6739   84.3961   15.4381 C.ar    1  UNL1        0.1545
     21 C          62.1393   85.4013   16.4147 C.3     1  UNL1        0.0754
     22 C          65.4181   91.4378   13.0092 C.ar    1  UNL1        0.0938
     23 C          66.8856   91.5447   12.7175 C.ar    1  UNL1        0.0184
     24 C          67.8685   91.6530   13.8454 C.ar    1  UNL1        0.0015
     25 C          67.3840   91.6544   15.2649 C.ar    1  UNL1        0.0032
     26 C          65.9166   91.5475   15.5567 C.ar    1  UNL1        0.0385
     27 C          64.9336   91.4392   14.4288 C.ar    1  UNL1        0.1607
     28 O          63.4661   91.3323   14.7205 O.3     1  UNL1       -0.4032
     29 C          62.9642   90.2829   15.6675 C.3     1  UNL1        0.5753
     30 F          62.4622   89.2336   16.6145 F       1  UNL1       -0.1328
     31 F          63.8340   90.8456   16.7522 F       1  UNL1       -0.1328
     32 F          62.0943   89.7201   14.5828 F       1  UNL1       -0.1328
     33 C          66.1450   85.6844   15.1085 C.3     1  UNL1        0.2525
     34 O          65.0880   86.7444   15.2043 O.3     1  UNL1       -0.4714
@<TRIPOS>BOND
     1    33    34    1
     2    34     1    1
     3     1     2   ar
     4     2     3   ar
     5     3     4   ar
     6     4     5   ar
     7     5     6   ar
     8     6    15    1
     9    15    16   ar
    10    16    17    1
    11    16    18   ar
    12    18    19   ar
    13    19    20   ar
    14    20    21    1
    15     4     7    2
    16     7     8    1
    17     8     9    1
    18     9    10    2
    19    10    11    1
    20    11    12    2
    21    11    13   am
    22    13    22    1
    23    22    23   ar
    24    23    24   ar
    25    24    25   ar
    26    25    26   ar
    27    26    27   ar
    28    27    28    1
    29    28    29    1
    30    29    30    1
    31    29    31    1
    32    29    32    1
    33    13    14    1
    34     6     1   ar
    35    20    15   ar
    36    14     9    1
    37    14     3    2
    38    27    22   ar
@<TRIPOS>MOLECULE
*****
 34 38 0 0 0
SMALL
GASTEIGER

@<TRIPOS>ATOM
      1 C          60.1789   94.2648   -2.3689 C.ar    1  UNL1        0.1389
      2 C          58.8834   94.5397   -3.0731 C.ar    1  UNL1        0.0397
      3 C          57.8012   95.3118   -2.3783 C.ar    1  UNL1        0.0353
      4 C          58.0146   95.8089   -0.9792 C.ar    1  UNL1        0.0779
      5 C          59.3101   95.5339   -0.2751 C.ar    1  UNL1        0.0219
      6 C          60.3923   94.7619   -0.9699 C.ar    1  UNL1        0.0394
      7 N          56.9324   96.5809   -0.2844 N.2     1  UNL1       -0.2641
      8 C          55.6368   96.8559   -0.9886 C.3     1  UNL1        0.1696
      9 C          55.4234   96.3588   -2.3877 C.2     1  UNL1        0.0912
     10 N          54.2605   96.4753   -3.3279 N.am    1  UNL1       -0.1627
     11 C          54.6239   95.7754   -4.6037 C.2     1  UNL1        0.3350
     12 O          53.7527   95.6471   -5.8180 O.2     1  UNL1       -0.2497
     13 N          56.0114   95.2262   -4.4522 N.am    1  UNL1       -0.2163
     14 C          56.5056   95.5867   -3.0825 C.2     1  UNL1        0.0744
     15 C          61.6879   94.4869   -0.2657 C.ar    1  UNL1        0.0526
     16 C          62.8276   95.4494   -0.1086 C.ar    1  UNL1        0.1007
     17 C          62.8719   96.8558   -0.6283 C.3     1  UNL1        0.0557
     18 N          63.9153   94.7585    0.6593 N.ar    1  UNL1       -0.0817
     19 O          63.4478   93.3690    0.9769 O.2     1  UNL1       -0.3581
     20 C          62.0712   93.2012    0.4052 C.ar    1  UNL1        0.1545
     21 C          61.2262   91.9647    0.4896 C.3     1  UNL1        0.0754
     22 C          56.7715   94.4523   -5.4882 C.ar    1  UNL1        0.0938
     23 C          57.6764   95.1693   -6.4458 C.ar    1  UNL1        0.0184
     24 C          58.4364   94.3954   -7.4819 C.ar    1  UNL1        0.0015
     25 C          58.2916   92.9045   -7.5604 C.ar    1  UNL1        0.0032
     26 C          57.3866   92.1875   -6.6028 C.ar    1  UNL1        0.0385
     27 C          56.6266   92.9614   -5.5667 C.ar    1  UNL1        0.1607
     28 O          55.7217   92.2444   -4.6091 O.3     1  UNL1       -0.4032
     29 C          56.2042   91.9095   -3.2289 C.3     1  UNL1        0.5753
     30 F          56.6867   91.5747   -1.8487 F       1  UNL1       -0.1328
     31 F          55.2246   92.8864   -2.6494 F       1  UNL1       -0.1328
     32 F          57.1839   90.9325   -3.8084 F       1  UNL1       -0.1328
     33 C          62.2921   94.2149   -3.8796 C.3     1  UNL1        0.2525
     34 O          61.2611   93.4927   -3.0638 O.3     1  UNL1       -0.4714
@<TRIPOS>BOND
     1    33    34    1
     2    34     1    1
     3     1     2   ar
     4     2     3   ar
     5     3     4   ar
     6     4     5   ar
     7     5     6   ar
     8     6    15    1
     9    15    16   ar
    10    16    17    1
    11    16    18   ar
    12    18    19   ar
    13    19    20   ar
    14    20    21    1
    15     4     7    2
    16     7     8    1
    17     8     9    1
    18     9    10    2
    19    10    11    1
    20    11    12    2
    21    11    13   am
    22    13    22    1
    23    22    23   ar
    24    23    24   ar
    25    24    25   ar
    26    25    26   ar
    27    26    27   ar
    28    27    28    1
    29    28    29    1
    30    29    30    1
    31    29    31    1
    32    29    32    1
    33    13    14    1
    34     6     1   ar
    35    20    15   ar
    36    14     9    1
    37    14     3    2
    38    27    22   ar
@<TRIPOS>MOLECULE
*****
 34 38 0 0 0
SMALL
GASTEIGER

@<TRIPOS>ATOM
      1 C          62.4883   84.8798   11.5732 C.ar    1  UNL1        0.1389
      2 C          62.6408   86.3357   11.9002 C.ar    1  UNL1        0.0397
      3 C          63.4272   86.7550   13.1067 C.ar    1  UNL1        0.0353
      4 C          64.0611   85.7185   13.9863 C.ar    1  UNL1        0.0779
      5 C          63.9086   84.2625   13.6593 C.ar    1  UNL1        0.0219
      6 C          63.1221   83.8432   12.4528 C.ar    1  UNL1        0.0394
      7 N          64.8475   86.1378   15.1928 N.2     1  UNL1       -0.2641
      8 C          65.0001   87.5937   15.5198 C.3     1  UNL1        0.1696
      9 C          64.3662   88.6304   14.6402 C.2     1  UNL1        0.0912
     10 N          64.3449   90.1286   14.7096 N.am    1  UNL1       -0.1627
     11 C          63.5454   90.6352   13.5460 C.2     1  UNL1        0.3350
     12 O          63.2675   92.0743   13.2269 O.2     1  UNL1       -0.2497
     13 N          63.0725   89.4501   12.7574 N.am    1  UNL1       -0.2163
     14 C          63.5798   88.2111   13.4337 C.2     1  UNL1        0.0744
     15 C          62.9696   82.3872   12.1258 C.ar    1  UNL1        0.0526
     16 C          62.2529   81.3667   12.9595 C.ar    1  UNL1        0.1007
     17 C          61.5628   81.6230   14.2664 C.3     1  UNL1        0.0557
     18 N          62.3473   80.0449   12.2567 N.ar    1  UNL1       -0.0817
     19 O          63.1225   80.2484   10.9887 O.2     1  UNL1       -0.3581
     20 C          63.5070   81.6960   10.9078 C.ar    1  UNL1        0.1545
     21 C          64.2914   82.3395    9.8030 C.3     1  UNL1        0.0754
     22 C          62.2387   89.4960   11.5113 C.ar    1  UNL1        0.0938
     23 C          62.9016   89.5463   10.1667 C.ar    1  UNL1        0.0184
     24 C          62.0678   89.5921    8.9207 C.ar    1  UNL1        0.0015
     25 C          60.5711   89.5877    9.0192 C.ar    1  UNL1        0.0032
     26 C          59.9081   89.5374   10.3638 C.ar    1  UNL1        0.0385
     27 C          60.7419   89.4916   11.6099 C.ar    1  UNL1        0.1607
     28 O          60.0790   89.4413   12.9545 O.3     1  UNL1       -0.4032
     29 C          58.6053   89.1803   13.0549 C.3     1  UNL1        0.5753
     30 F          57.1316   88.9194   13.1552 F       1  UNL1       -0.1328
     31 F          58.3476   90.2393   12.0244 F       1  UNL1       -0.1328
     32 F          58.8630   88.1213   14.0854 F       1  UNL1       -0.1328
     33 C          61.5876   85.3817    9.1885 C.3     1  UNL1        0.2525
     34 O          61.7018   84.4604   10.3667 O.3     1  UNL1       -0.4714
@<TRIPOS>BOND
     1    33    34    1
     2    34     1    1
     3     1     2   ar
     4     2     3   ar
     5     3     4   ar
     6     4     5   ar
     7     5     6   ar
     8     6    15    1
     9    15    16   ar
    10    16    17    1
    11    16    18   ar
    12    18    19   ar
    13    19    20   ar
    14    20    21    1
    15     4     7    2
    16     7     8    1
    17     8     9    1
    18     9    10    2
    19    10    11    1
    20    11    12    2
    21    11    13   am
    22    13    22    1
    23    22    23   ar
    24    23    24   ar
    25    24    25   ar
    26    25    26   ar
    27    26    27   ar
    28    27    28    1
    29    28    29    1
    30    29    30    1
    31    29    31    1
    32    29    32    1
    33    13    14    1
    34     6     1   ar
    35    20    15   ar
    36    14     9    1
    37    14     3    2
    38    27    22   ar
@<TRIPOS>MOLECULE
*****
 34 38 0 0 0
SMALL
GASTEIGER

@<TRIPOS>ATOM
      1 C          63.3733   90.3485   11.5722 C.ar    1  UNL1        0.1389
      2 C          64.3280   91.2072   12.3476 C.ar    1  UNL1        0.0397
      3 C          64.2679   91.2308   13.8462 C.ar    1  UNL1        0.0353
      4 C          63.2533   90.3957   14.5694 C.ar    1  UNL1        0.0779
      5 C          62.2986   89.5370   13.7940 C.ar    1  UNL1        0.0219
      6 C          62.3587   89.5134   12.2954 C.ar    1  UNL1        0.0394
      7 N          63.1932   90.4193   16.0680 N.2     1  UNL1       -0.2641
      8 C          64.1478   91.2780   16.8434 C.3     1  UNL1        0.1696
      9 C          65.1626   92.1132   16.1202 C.2     1  UNL1        0.0912
     10 N          66.2254   93.0505   16.6120 N.am    1  UNL1       -0.1627
     11 C          66.9422   93.6062   15.4173 C.2     1  UNL1        0.3350
     12 O          68.0792   94.5841   15.4474 O.2     1  UNL1       -0.2497
     13 N          66.3225   93.0123   14.1872 N.am    1  UNL1       -0.2163
     14 C          65.2226   92.0895   14.6216 C.2     1  UNL1        0.0744
     15 C          61.4040   88.6546   11.5200 C.ar    1  UNL1        0.0526
     16 C          61.5992   87.2076   11.1765 C.ar    1  UNL1        0.1007
     17 C          62.7834   86.3652   11.5481 C.3     1  UNL1        0.0557
     18 N          60.4024   86.7509   10.3962 N.ar    1  UNL1       -0.0817
     19 O          59.4674   87.9156   10.2574 O.2     1  UNL1       -0.3581
     20 C          60.0865   89.0922   10.9519 C.ar    1  UNL1        0.1545
     21 C          59.4923   90.4653   11.0595 C.3     1  UNL1        0.0754
     22 C          66.7310   93.2920   12.7712 C.ar    1  UNL1        0.0938
     23 C          66.0595   94.3893   11.9998 C.ar    1  UNL1        0.0184
     24 C          66.4679   94.6690   10.5838 C.ar    1  UNL1        0.0015
     25 C          67.5478   93.8514    9.9393 C.ar    1  UNL1        0.0032
     26 C          68.2193   92.7542   10.7108 C.ar    1  UNL1        0.0385
     27 C          67.8109   92.4745   12.1267 C.ar    1  UNL1        0.1607
     28 O          68.4823   91.3772   12.8982 O.3     1  UNL1       -0.4032
     29 C          69.0192   91.6468   14.2726 C.3     1  UNL1        0.5753
     30 F          69.5561   91.9164   15.6470 F       1  UNL1       -0.1328
     31 F          70.0939   92.5113   13.6833 F       1  UNL1       -0.1328
     32 F          67.9445   90.7822   14.8621 F       1  UNL1       -0.1328
     33 C          62.5596   91.2447    9.2734 C.3     1  UNL1        0.2525
     34 O          63.4334   90.3248   10.0736 O.3     1  UNL1       -0.4714
@<TRIPOS>BOND
     1    33    34    1
     2    34     1    1
     3     1     2   ar
     4     2     3   ar
     5     3     4   ar
     6     4     5   ar
     7     5     6   ar
     8     6    15    1
     9    15    16   ar
    10    16    17    1
    11    16    18   ar
    12    18    19   ar
    13    19    20   ar
    14    20    21    1
    15     4     7    2
    16     7     8    1
    17     8     9    1
    18     9    10    2
    19    10    11    1
    20    11    12    2
    21    11    13   am
    22    13    22    1
    23    22    23   ar
    24    23    24   ar
    25    24    25   ar
    26    25    26   ar
    27    26    27   ar
    28    27    28    1
    29    28    29    1
    30    29    30    1
    31    29    31    1
    32    29    32    1
    33    13    14    1
    34     6     1   ar
    35    20    15   ar
    36    14     9    1
    37    14     3    2
    38    27    22   ar
@<TRIPOS>MOLECULE
*****
 34 38 0 0 0
SMALL
GASTEIGER

@<TRIPOS>ATOM
      1 C          62.4914   84.9822   11.5682 C.ar    1  UNL1        0.1389
      2 C          62.6539   86.3982   12.0357 C.ar    1  UNL1        0.0397
      3 C          63.5242   86.7022   13.2190 C.ar    1  UNL1        0.0353
      4 C          64.2320   85.5902   13.9348 C.ar    1  UNL1        0.0779
      5 C          64.0695   84.1742   13.4673 C.ar    1  UNL1        0.0219
      6 C          63.1992   83.8702   12.2841 C.ar    1  UNL1        0.0394
      7 N          65.1023   85.8941   15.1181 N.2     1  UNL1       -0.2641
      8 C          65.2649   87.3101   15.5855 C.3     1  UNL1        0.1696
      9 C          64.5571   88.4222   14.8697 C.2     1  UNL1        0.0912
     10 N          64.5266   89.9043   15.0990 N.am    1  UNL1       -0.1627
     11 C          63.6375   90.5162   14.0574 C.2     1  UNL1        0.3350
     12 O          63.3227   91.9758   13.9140 O.2     1  UNL1       -0.2497
     13 N          63.1184   89.4125   13.1844 N.am    1  UNL1       -0.2163
     14 C          63.6868   88.1182   13.6864 C.2     1  UNL1        0.0744
     15 C          63.0367   82.4542   11.8166 C.ar    1  UNL1        0.0526
     16 C          63.5605   81.8842   10.5318 C.ar    1  UNL1        0.1007
     17 C          64.3388   82.6301    9.4888 C.3     1  UNL1        0.0557
     18 N          63.1693   80.4373   10.4731 N.ar    1  UNL1       -0.0817
     19 O          62.4037   80.1130   11.7216 O.2     1  UNL1       -0.3581
     20 C          62.3218   81.3595   12.5520 C.ar    1  UNL1        0.1545
     21 C          61.6439   81.4887   13.8838 C.3     1  UNL1        0.0754
     22 C          62.1934   89.5744   12.0147 C.ar    1  UNL1        0.0938
     23 C          60.7575   89.1566   12.1306 C.ar    1  UNL1        0.0184
     24 C          59.8325   89.3185   10.9609 C.ar    1  UNL1        0.0015
     25 C          60.3434   89.8982    9.6753 C.ar    1  UNL1        0.0032
     26 C          61.7794   90.3160    9.5594 C.ar    1  UNL1        0.0385
     27 C          62.7044   90.1541   10.7291 C.ar    1  UNL1        0.1607
     28 O          64.1403   90.5719   10.6132 O.3     1  UNL1       -0.4032
     29 C          64.5103   92.0218   10.7169 C.3     1  UNL1        0.5753
     30 F          64.8804   93.4717   10.8207 F       1  UNL1       -0.1328
     31 F          65.5919   91.6757   11.6969 F       1  UNL1       -0.1328
     32 F          63.4288   92.3680    9.7369 F       1  UNL1       -0.1328
     33 C          61.7055   85.5302    9.1533 C.3     1  UNL1        0.2525
     34 O          61.6211   84.6783   10.3849 O.3     1  UNL1       -0.4714
@<TRIPOS>BOND
     1    33    34    1
     2    34     1    1
     3     1     2   ar
     4     2     3   ar
     5     3     4   ar
     6     4     5   ar
     7     5     6   ar
     8     6    15    1
     9    15    16   ar
    10    16    17    1
    11    16    18   ar
    12    18    19   ar
    13    19    20   ar
    14    20    21    1
    15     4     7    2
    16     7     8    1
    17     8     9    1
    18     9    10    2
    19    10    11    1
    20    11    12    2
    21    11    13   am
    22    13    22    1
    23    22    23   ar
    24    23    24   ar
    25    24    25   ar
    26    25    26   ar
    27    26    27   ar
    28    27    28    1
    29    28    29    1
    30    29    30    1
    31    29    31    1
    32    29    32    1
    33    13    14    1
    34     6     1   ar
    35    20    15   ar
    36    14     9    1
    37    14     3    2
    38    27    22   ar
