@<TRIPOS>MOLECULE
*****
 41 45 0 0 0
SMALL
GASTEIGER

@<TRIPOS>ATOM
      1 C          63.0153   84.2512   12.3658 C.3     1  UNL1        0.0603
      2 C          62.3952   85.1931   11.3766 C.ar    1  UNL1        0.0357
      3 C          61.6872   84.6534   10.1693 C.ar    1  UNL1        0.0022
      4 C          61.0671   85.5953    9.1802 C.ar    1  UNL1        0.0190
      5 C          61.1551   87.0767    9.3983 C.ar    1  UNL1        0.0844
      6 N          61.8630   87.6163   10.6056 N.ar    1  UNL1       -0.2116
      7 C          62.4831   86.6745   11.5947 C.ar    1  UNL1        0.2259
      8 O          63.1911   87.2141   12.8021 O.3     1  UNL1       -0.4345
      9 C          63.8111   86.2723   13.7912 C.ar    1  UNL1        0.1707
     10 C          64.5192   86.8119   14.9986 C.ar    1  UNL1        0.1741
     11 F          64.6071   88.2933   15.2167 F       1  UNL1       -0.2010
     12 C          65.1392   85.8701   15.9877 C.ar    1  UNL1        0.0328
     13 C          65.0513   84.3886   15.7696 C.ar    1  UNL1        0.0022
     14 C          64.3433   83.8490   14.5623 C.ar    1  UNL1       -0.0008
     15 C          63.7232   84.7908   13.5731 C.ar    1  UNL1        0.0190
     16 C          60.5350   88.0186    8.4091 C.ar    1  UNL1        0.0178
     17 C          60.6966   89.4999    8.5808 C.ar    1  UNL1        0.0016
     18 C          60.0765   90.4417    7.5916 C.ar    1  UNL1        0.0046
     19 C          59.2948   89.9022    6.4307 C.ar    1  UNL1        0.0536
     20 C          59.1331   88.4208    6.2590 C.ar    1  UNL1        0.0046
     21 C          59.7532   87.4790    7.2482 C.ar    1  UNL1        0.0016
     22 C          58.6747   90.8439    5.4415 C.2     1  UNL1        0.2492
     23 O          57.1953   91.0902    5.4660 O.2     1  UNL1       -0.2699
     24 N          59.5341   91.5394    4.4277 N.am    1  UNL1       -0.2709
     25 C          61.0135   91.2931    4.4031 C.3     1  UNL1        0.1258
     26 C          61.8729   91.9886    3.3893 C.3     1  UNL1        0.1637
     27 O          61.2528   92.9304    2.4001 O.3     1  UNL1       -0.3501
     28 C          59.7734   93.1767    2.4247 C.3     1  UNL1        0.1637
     29 C          58.9140   92.4812    3.4384 C.3     1  UNL1        0.1258
     30 C          61.8662   82.6772   13.2038 C.3     1  UNL1        0.0098
     31 C          62.9273   82.7698   12.1477 C.3     1  UNL1        0.0770
     32 C          63.9885   82.8623   11.0916 C.3     1  UNL1        0.0098
     33 C          62.8394   81.2883   11.9295 C.2     1  UNL1        0.2289
     34 O          62.4965   80.3808   13.0736 O.2     1  UNL1       -0.2747
     35 N          63.0945   80.7144   10.5673 N.am    1  UNL1       -0.2398
     36 C          63.0065   79.2329   10.3492 C.2     1  UNL1        0.3033
     37 N          63.2616   78.6590    8.9870 N.am    1  UNL1       -0.3130
     38 O          62.6636   78.3254   11.4933 O.2     1  UNL1       -0.2527
     39 H          63.3196   81.3100    9.8164 H       1  UNL1        0.1591
     40 H          63.4867   79.2546    8.2362 H       1  UNL1        0.1465
     41 H          63.2039   77.6866    8.8439 H       1  UNL1        0.1465
@<TRIPOS>BOND
     1    30    31    1
     2    31    32    1
     3    31    33    1
     4    33    34    2
     5    33    35   am
     6    35    36   am
     7    36    37   am
     8    36    38    2
     9     1    31    1
    10     1     2    1
    11     2     3   ar
    12     3     4   ar
    13     4     5   ar
    14     5    16    1
    15    16    17   ar
    16    17    18   ar
    17    18    19   ar
    18    19    22    1
    19    22    23    2
    20    22    24   am
    21    24    25    1
    22    25    26    1
    23    26    27    1
    24    27    28    1
    25    28    29    1
    26    19    20   ar
    27    20    21   ar
    28     5     6   ar
    29     6     7   ar
    30     7     8    1
    31     8     9    1
    32     9    10   ar
    33    10    11    1
    34    10    12   ar
    35    12    13   ar
    36    13    14   ar
    37    14    15   ar
    38    15     1    1
    39     7     2   ar
    40    15     9   ar
    41    21    16   ar
    42    29    24    1
    43    35    39    1
    44    37    40    1
    45    37    41    1
@<TRIPOS>MOLECULE
*****
 41 45 0 0 0
SMALL
GASTEIGER

@<TRIPOS>ATOM
      1 C          62.5485   84.5865   13.1099 C.3     1  UNL1        0.0603
      2 C          62.0054   85.4627   12.0201 C.ar    1  UNL1        0.0357
      3 C          61.5970   86.8733   12.3255 C.ar    1  UNL1        0.0022
      4 C          61.0539   87.7494   11.2358 C.ar    1  UNL1        0.0190
      5 C          60.9193   87.2149    9.8407 C.ar    1  UNL1        0.0844
      6 N          61.3277   85.8042    9.5354 N.ar    1  UNL1       -0.2116
      7 C          61.8708   84.9282   10.6251 C.ar    1  UNL1        0.2259
      8 O          62.2793   83.5174   10.3198 O.3     1  UNL1       -0.4345
      9 C          62.8223   82.6414   11.4095 C.ar    1  UNL1        0.1707
     10 C          63.2308   81.2307   11.1042 C.ar    1  UNL1        0.1741
     11 F          63.0961   80.6961    9.7092 F       1  UNL1       -0.2010
     12 C          63.7738   80.3546   12.1939 C.ar    1  UNL1        0.0328
     13 C          63.9085   80.8891   13.5890 C.ar    1  UNL1        0.0022
     14 C          63.5001   82.2997   13.8943 C.ar    1  UNL1       -0.0008
     15 C          62.9570   83.1759   12.8045 C.ar    1  UNL1        0.0190
     16 C          60.3762   88.0910    8.7510 C.ar    1  UNL1        0.0178
     17 C          59.7231   87.4755    7.5491 C.ar    1  UNL1        0.0016
     18 C          59.1800   88.3516    6.4594 C.ar    1  UNL1        0.0046
     19 C          59.2901   89.8434    6.5716 C.ar    1  UNL1        0.0536
     20 C          59.9432   90.4589    7.7735 C.ar    1  UNL1        0.0046
     21 C          60.4862   89.5828    8.8632 C.ar    1  UNL1        0.0016
     22 C          58.7470   90.7195    5.4820 C.2     1  UNL1        0.2492
     23 O          57.2696   90.9566    5.3764 O.2     1  UNL1       -0.2699
     24 N          59.6813   91.3586    4.4978 N.am    1  UNL1       -0.2709
     25 C          61.1587   91.1215    4.6033 C.3     1  UNL1        0.1258
     26 C          62.0930   91.7606    3.6191 C.3     1  UNL1        0.1637
     27 O          61.5500   92.6368    2.5295 O.3     1  UNL1       -0.3501
     28 C          60.0726   92.8739    2.4239 C.3     1  UNL1        0.1637
     29 C          59.1383   92.2348    3.4081 C.3     1  UNL1        0.1258
     30 C          61.4276   84.4025   14.9014 C.3     1  UNL1        0.0098
     31 C          62.6832   85.1211   14.5049 C.3     1  UNL1        0.0770
     32 C          63.9387   85.8397   14.1084 C.3     1  UNL1        0.0098
     33 C          62.8178   85.6556   15.9000 C.2     1  UNL1        0.2289
     34 O          62.8137   84.7140   17.0676 O.2     1  UNL1       -0.2747
     35 N          62.9566   87.1318   16.1274 N.am    1  UNL1       -0.2398
     36 C          63.0912   87.6664   17.5224 C.2     1  UNL1        0.3033
     37 N          63.2300   89.1425   17.7498 N.am    1  UNL1       -0.3130
     38 O          63.0871   86.7247   18.6900 O.2     1  UNL1       -0.2527
     39 H          62.9593   87.7498   15.3610 H       1  UNL1        0.1591
     40 H          63.2327   89.7605   16.9835 H       1  UNL1        0.1465
     41 H          63.3183   89.4933   18.6654 H       1  UNL1        0.1465
@<TRIPOS>BOND
     1    30    31    1
     2    31    32    1
     3    31    33    1
     4    33    34    2
     5    33    35   am
     6    35    36   am
     7    36    37   am
     8    36    38    2
     9     1    31    1
    10     1     2    1
    11     2     3   ar
    12     3     4   ar
    13     4     5   ar
    14     5    16    1
    15    16    17   ar
    16    17    18   ar
    17    18    19   ar
    18    19    22    1
    19    22    23    2
    20    22    24   am
    21    24    25    1
    22    25    26    1
    23    26    27    1
    24    27    28    1
    25    28    29    1
    26    19    20   ar
    27    20    21   ar
    28     5     6   ar
    29     6     7   ar
    30     7     8    1
    31     8     9    1
    32     9    10   ar
    33    10    11    1
    34    10    12   ar
    35    12    13   ar
    36    13    14   ar
    37    14    15   ar
    38    15     1    1
    39     7     2   ar
    40    15     9   ar
    41    21    16   ar
    42    29    24    1
    43    35    39    1
    44    37    40    1
    45    37    41    1
@<TRIPOS>MOLECULE
*****
 41 45 0 0 0
SMALL
GASTEIGER

@<TRIPOS>ATOM
      1 C          62.8934   85.2981   12.0462 C.3     1  UNL1        0.0603
      2 C          62.2624   86.1679   10.9996 C.ar    1  UNL1        0.0357
      3 C          61.5882   85.5449    9.8133 C.ar    1  UNL1        0.0022
      4 C          60.9573   86.4147    8.7668 C.ar    1  UNL1        0.0190
      5 C          61.0006   87.9076    8.9065 C.ar    1  UNL1        0.0844
      6 N          61.6749   88.5306   10.0927 N.ar    1  UNL1       -0.2116
      7 C          62.3058   87.6607   11.1392 C.ar    1  UNL1        0.2259
      8 O          62.9800   88.2838   12.3256 O.3     1  UNL1       -0.4345
      9 C          63.6109   87.4139   13.3721 C.ar    1  UNL1        0.1707
     10 C          64.2852   88.0369   14.5584 C.ar    1  UNL1        0.1741
     11 F          64.3286   89.5298   14.6981 F       1  UNL1       -0.2010
     12 C          64.9161   87.1671   15.6050 C.ar    1  UNL1        0.0328
     13 C          64.8728   85.6742   15.4653 C.ar    1  UNL1        0.0022
     14 C          64.1985   85.0512   14.2791 C.ar    1  UNL1       -0.0008
     15 C          63.5676   85.9211   13.2324 C.ar    1  UNL1        0.0190
     16 C          60.3697   88.7774    7.8598 C.ar    1  UNL1        0.0178
     17 C          59.0102   88.4395    7.3237 C.ar    1  UNL1        0.0016
     18 C          58.3792   89.3094    6.2770 C.ar    1  UNL1        0.0046
     19 C          59.1079   90.5171    5.7666 C.ar    1  UNL1        0.0536
     20 C          60.4675   90.8549    6.3028 C.ar    1  UNL1        0.0046
     21 C          61.0983   89.9851    7.3494 C.ar    1  UNL1        0.0016
     22 C          58.4770   91.3869    4.7200 C.2     1  UNL1        0.2492
     23 O          56.9920   91.5985    4.7161 O.2     1  UNL1       -0.2699
     24 N          59.3311   92.0452    3.6774 N.am    1  UNL1       -0.2709
     25 C          60.8161   91.8336    3.6814 C.3     1  UNL1        0.1258
     26 C          61.6703   92.4919    2.6387 C.3     1  UNL1        0.1637
     27 O          61.0394   93.3618    1.5921 O.3     1  UNL1       -0.3501
     28 C          59.5544   93.5733    1.5882 C.3     1  UNL1        0.1637
     29 C          58.7003   92.9151    2.6308 C.3     1  UNL1        0.1258
     30 C          63.7329   83.8927   10.6970 C.3     1  UNL1        0.0098
     31 C          62.8500   83.8052   11.9065 C.3     1  UNL1        0.0770
     32 C          61.9671   83.7177   13.1160 C.3     1  UNL1        0.0098
     33 C          62.8067   82.3123   11.7668 C.2     1  UNL1        0.2289
     34 O          63.1732   81.6702   10.4617 O.2     1  UNL1       -0.2747
     35 N          62.3968   81.4616   12.9323 N.am    1  UNL1       -0.2398
     36 C          62.3534   79.9687   12.7926 C.2     1  UNL1        0.3033
     37 N          61.9435   79.1180   13.9580 N.am    1  UNL1       -0.3130
     38 O          62.7200   79.3266   11.4874 O.2     1  UNL1       -0.2527
     39 H          62.1562   81.8830   13.7889 H       1  UNL1        0.1591
     40 H          61.7029   79.5394   14.8146 H       1  UNL1        0.1465
     41 H          61.9151   78.1382   13.8663 H       1  UNL1        0.1465
@<TRIPOS>BOND
     1    30    31    1
     2    31    32    1
     3    31    33    1
     4    33    34    2
     5    33    35   am
     6    35    36   am
     7    36    37   am
     8    36    38    2
     9     1    31    1
    10     1     2    1
    11     2     3   ar
    12     3     4   ar
    13     4     5   ar
    14     5    16    1
    15    16    17   ar
    16    17    18   ar
    17    18    19   ar
    18    19    22    1
    19    22    23    2
    20    22    24   am
    21    24    25    1
    22    25    26    1
    23    26    27    1
    24    27    28    1
    25    28    29    1
    26    19    20   ar
    27    20    21   ar
    28     5     6   ar
    29     6     7   ar
    30     7     8    1
    31     8     9    1
    32     9    10   ar
    33    10    11    1
    34    10    12   ar
    35    12    13   ar
    36    13    14   ar
    37    14    15   ar
    38    15     1    1
    39     7     2   ar
    40    15     9   ar
    41    21    16   ar
    42    29    24    1
    43    35    39    1
    44    37    40    1
    45    37    41    1
