@<TRIPOS>MOLECULE
*****
 36 40 0 0 0
SMALL
GASTEIGER

@<TRIPOS>ATOM
      1 N          65.9812   92.7113   11.8477 N.am    1  UNL1       -0.2681
      2 C          64.7787   91.8380   11.6436 C.2     1  UNL1        0.3078
      3 O          63.9334   92.0009   10.4153 O.2     1  UNL1       -0.2522
      4 N          64.4218   90.8020   12.6678 N.am    1  UNL1       -0.2605
      5 C          63.2193   89.9287   12.4638 C.3     1  UNL1        0.1164
      6 C          62.8623   88.8927   13.4879 C.3     1  UNL1        0.1138
      7 N          63.7078   88.7298   14.7163 N.pl3   1  UNL1       -0.2884
      8 C          64.9102   89.6030   14.9204 C.3     1  UNL1        0.1138
      9 C          65.2671   90.6391   13.8961 C.3     1  UNL1        0.1164
     10 H          66.5361   92.6044   12.6538 H       1  UNL1        0.1564
     11 C          63.3507   87.6937   15.7406 C.ar    1  UNL1        0.1544
     12 N          63.1271   88.0961   17.1681 N.ar    1  UNL1       -0.1974
     13 C          62.7701   87.0601   18.1923 C.ar    1  UNL1        0.2154
     14 N          62.5464   87.4626   19.6200 N.pl3   1  UNL1       -0.3274
     15 N          62.6367   85.6215   17.7890 N.ar    1  UNL1       -0.2057
     16 C          62.8603   85.2190   16.3614 C.ar    1  UNL1        0.1353
     17 S          62.7996   83.8879   15.6726 S.2     1  UNL1       -0.0472
     18 C          63.1190   84.1013   14.2227 C.ar    1  UNL1        0.1137
     19 N          63.3773   85.5643   14.0154 N.ar    1  UNL1       -0.2339
     20 C          63.2174   86.2551   15.3372 C.ar    1  UNL1        0.1372
     21 H          62.6339   88.4068   19.8847 H       1  UNL1        0.1452
     22 H          62.3121   86.7826   20.2922 H       1  UNL1        0.1452
     23 C          63.1712   83.0384   13.1656 C.ar    1  UNL1        0.0430
     24 C          62.4403   81.7441   13.3668 C.ar    1  UNL1        0.0052
     25 C          62.4925   80.6811   12.3096 C.ar    1  UNL1        0.0207
     26 C          63.2755   80.9125   11.0513 C.ar    1  UNL1        0.0989
     27 N          64.0064   82.2068   10.8501 N.ar    1  UNL1       -0.2423
     28 C          63.9542   83.2698   11.9073 C.ar    1  UNL1        0.1009
     29 C          67.0522   95.8195    8.7750 C.ar    1  UNL1        0.1388
     30 C          67.6344   94.4403    8.6812 C.ar    1  UNL1        0.0382
     31 C          67.2775   93.4042    9.7053 C.ar    1  UNL1        0.0178
     32 C          66.3382   93.7473   10.8235 C.ar    1  UNL1        0.0518
     33 C          65.7559   95.1266   10.9173 C.ar    1  UNL1        0.0178
     34 C          66.1129   96.1627    9.8930 C.ar    1  UNL1        0.0382
     35 C          66.7269   96.8560    6.4149 C.3     1  UNL1        0.2525
     36 O          67.4092   96.8556    7.7507 O.3     1  UNL1       -0.4714
@<TRIPOS>BOND
     1    35    36    1
     2    36    29    1
     3    29    30   ar
     4    30    31   ar
     5    31    32   ar
     6    32     1    1
     7     1     2   am
     8     2     3    2
     9     2     4   am
    10     4     5    1
    11     5     6    1
    12     6     7    1
    13     7    11    1
    14    11    12   ar
    15    12    13   ar
    16    13    14    1
    17    13    15   ar
    18    15    16   ar
    19    16    17   ar
    20    17    18   ar
    21    18    23    1
    22    23    24   ar
    23    24    25   ar
    24    25    26   ar
    25    26    27   ar
    26    27    28   ar
    27    18    19   ar
    28    19    20   ar
    29     7     8    1
    30     8     9    1
    31    32    33   ar
    32    33    34   ar
    33    34    29   ar
    34     9     4    1
    35    20    11   ar
    36    20    16   ar
    37    28    23   ar
    38     1    10    1
    39    14    21    1
    40    14    22    1
@<TRIPOS>MOLECULE
*****
 36 40 0 0 0
SMALL
GASTEIGER

@<TRIPOS>ATOM
      1 N          63.6832   83.9209   13.3837 N.am    1  UNL1       -0.2681
      2 C          63.2475   85.1361   12.6197 C.2     1  UNL1        0.3078
      3 O          62.4519   84.9829   11.3574 O.2     1  UNL1       -0.2522
      4 N          63.6073   86.5043   13.1180 N.am    1  UNL1       -0.2605
      5 C          63.1715   87.7194   12.3540 C.3     1  UNL1        0.1164
      6 C          63.5313   89.0876   12.8523 C.3     1  UNL1        0.1138
      7 N          64.3270   89.2409   14.1148 N.pl3   1  UNL1       -0.2884
      8 C          64.7628   88.0258   14.8788 C.3     1  UNL1        0.1138
      9 C          64.4029   86.6575   14.3804 C.3     1  UNL1        0.1164
     10 H          64.2054   84.0215   14.2122 H       1  UNL1        0.1564
     11 C          64.6868   90.6091   14.6131 C.ar    1  UNL1        0.1544
     12 N          64.3410   91.0113   16.0162 N.ar    1  UNL1       -0.1974
     13 C          64.7008   92.3795   16.5145 C.ar    1  UNL1        0.2154
     14 N          64.3549   92.7816   17.9177 N.pl3   1  UNL1       -0.3274
     15 N          65.4065   93.3457   15.6098 N.ar    1  UNL1       -0.2057
     16 C          65.7523   92.9436   14.2067 C.ar    1  UNL1        0.1353
     17 S          66.4408   93.6762   13.0935 S.2     1  UNL1       -0.0472
     18 C          66.5066   92.7606   11.9071 C.ar    1  UNL1        0.1137
     19 N          65.8586   91.4622   12.2871 N.ar    1  UNL1       -0.2339
     20 C          65.3925   91.5753   13.7083 C.ar    1  UNL1        0.1372
     21 H          63.8918   92.1475   18.5115 H       1  UNL1        0.1452
     22 H          64.5911   93.6797   18.2448 H       1  UNL1        0.1452
     23 C          67.1136   93.0862   10.5747 C.ar    1  UNL1        0.0430
     24 C          68.0943   92.1411    9.9462 C.ar    1  UNL1        0.0052
     25 C          68.7014   92.4669    8.6137 C.ar    1  UNL1        0.0207
     26 C          68.3277   93.7376    7.9097 C.ar    1  UNL1        0.0989
     27 N          67.3470   94.6827    8.5382 N.ar    1  UNL1       -0.2423
     28 C          66.7400   94.3570    9.8707 C.ar    1  UNL1        0.1009
     29 C          62.6037   79.8162   11.8887 C.ar    1  UNL1        0.1388
     30 C          63.1980   80.8240   10.9500 C.ar    1  UNL1        0.0382
     31 C          63.5579   82.1922   11.4483 C.ar    1  UNL1        0.0178
     32 C          63.3234   82.5528   12.8854 C.ar    1  UNL1        0.0518
     33 C          62.7291   81.5449   13.8241 C.ar    1  UNL1        0.0178
     34 C          62.3693   80.1766   13.3257 C.ar    1  UNL1        0.0382
     35 C          62.8334   77.9374   10.1090 C.3     1  UNL1        0.2525
     36 O          62.2439   78.4479   11.3903 O.3     1  UNL1       -0.4714
@<TRIPOS>BOND
     1    35    36    1
     2    36    29    1
     3    29    30   ar
     4    30    31   ar
     5    31    32   ar
     6    32     1    1
     7     1     2   am
     8     2     3    2
     9     2     4   am
    10     4     5    1
    11     5     6    1
    12     6     7    1
    13     7    11    1
    14    11    12   ar
    15    12    13   ar
    16    13    14    1
    17    13    15   ar
    18    15    16   ar
    19    16    17   ar
    20    17    18   ar
    21    18    23    1
    22    23    24   ar
    23    24    25   ar
    24    25    26   ar
    25    26    27   ar
    26    27    28   ar
    27    18    19   ar
    28    19    20   ar
    29     7     8    1
    30     8     9    1
    31    32    33   ar
    32    33    34   ar
    33    34    29   ar
    34     9     4    1
    35    20    11   ar
    36    20    16   ar
    37    28    23   ar
    38     1    10    1
    39    14    21    1
    40    14    22    1
@<TRIPOS>MOLECULE
*****
 36 40 0 0 0
SMALL
GASTEIGER

@<TRIPOS>ATOM
      1 N          55.3890   95.6782   -2.6862 N.am    1  UNL1       -0.2681
      2 C          55.6763   94.3696   -2.0114 C.2     1  UNL1        0.3078
      3 O          54.6083   93.3198   -1.9255 O.2     1  UNL1       -0.2522
      4 N          57.0314   94.1109   -1.4228 N.am    1  UNL1       -0.2605
      5 C          57.3187   92.8023   -0.7481 C.3     1  UNL1        0.1164
      6 C          58.6738   92.5436   -0.1595 C.3     1  UNL1        0.1138
      7 N          59.7418   93.5935   -0.2455 N.pl3   1  UNL1       -0.2884
      8 C          59.4546   94.9020   -0.9201 C.3     1  UNL1        0.1138
      9 C          58.0993   95.1607   -1.5088 C.3     1  UNL1        0.1164
     10 H          56.0899   96.3673   -2.7426 H       1  UNL1        0.1564
     11 C          61.0970   93.3347    0.3432 C.ar    1  UNL1        0.1544
     12 N          61.2180   92.6939    1.6940 N.ar    1  UNL1       -0.1974
     13 C          62.5731   92.4351    2.2826 C.ar    1  UNL1        0.2154
     14 N          62.6941   91.7942    3.6335 N.pl3   1  UNL1       -0.3274
     15 N          63.8074   92.8172    1.5205 N.ar    1  UNL1       -0.2057
     16 C          63.6864   93.4580    0.1697 C.ar    1  UNL1        0.1353
     17 S          64.7164   93.9397   -0.8085 S.2     1  UNL1       -0.0472
     18 C          63.9978   94.4962   -2.0018 C.ar    1  UNL1        0.1137
     19 N          62.5237   94.3584   -1.7610 N.ar    1  UNL1       -0.2339
     20 C          62.3312   93.7168   -0.4189 C.ar    1  UNL1        0.1372
     21 H          61.8841   91.5435    4.1337 H       1  UNL1        0.1452
     22 H          63.5836   91.6244    4.0199 H       1  UNL1        0.1452
     23 C          64.6405   95.0868   -3.2217 C.ar    1  UNL1        0.0430
     24 C          64.3646   94.4989   -4.5738 C.ar    1  UNL1        0.0052
     25 C          65.0073   95.0896   -5.7937 C.ar    1  UNL1        0.0207
     26 C          65.9259   96.2680   -5.6615 C.ar    1  UNL1        0.0989
     27 N          66.2018   96.8559   -4.3094 N.ar    1  UNL1       -0.2423
     28 C          65.5590   96.2652   -3.0895 C.ar    1  UNL1        0.1009
     29 C          51.3234   96.4544   -4.4521 C.ar    1  UNL1        0.1388
     30 C          52.5393   96.4770   -5.3302 C.ar    1  UNL1        0.0382
     31 C          53.8945   96.2183   -4.7416 C.ar    1  UNL1        0.0178
     32 C          54.0339   95.9369   -3.2748 C.ar    1  UNL1        0.0518
     33 C          52.8179   95.9143   -2.3966 C.ar    1  UNL1        0.0178
     34 C          51.4627   96.1731   -2.9853 C.ar    1  UNL1        0.0382
     35 C          49.2486   95.6210   -5.7751 C.3     1  UNL1        0.2525
     36 O          49.9683   96.7132   -5.0408 O.3     1  UNL1       -0.4714
@<TRIPOS>BOND
     1    35    36    1
     2    36    29    1
     3    29    30   ar
     4    30    31   ar
     5    31    32   ar
     6    32     1    1
     7     1     2   am
     8     2     3    2
     9     2     4   am
    10     4     5    1
    11     5     6    1
    12     6     7    1
    13     7    11    1
    14    11    12   ar
    15    12    13   ar
    16    13    14    1
    17    13    15   ar
    18    15    16   ar
    19    16    17   ar
    20    17    18   ar
    21    18    23    1
    22    23    24   ar
    23    24    25   ar
    24    25    26   ar
    25    26    27   ar
    26    27    28   ar
    27    18    19   ar
    28    19    20   ar
    29     7     8    1
    30     8     9    1
    31    32    33   ar
    32    33    34   ar
    33    34    29   ar
    34     9     4    1
    35    20    11   ar
    36    20    16   ar
    37    28    23   ar
    38     1    10    1
    39    14    21    1
    40    14    22    1
@<TRIPOS>MOLECULE
*****
 36 40 0 0 0
SMALL
GASTEIGER

@<TRIPOS>ATOM
      1 N          55.8067   95.4184   -4.6798 N.am    1  UNL1       -0.2681
      2 C          56.0541   95.8688   -3.2706 C.2     1  UNL1        0.3078
      3 O          55.0108   96.6643   -2.5435 O.2     1  UNL1       -0.2522
      4 N          57.3446   95.5238   -2.5885 N.am    1  UNL1       -0.2605
      5 C          57.5920   95.9742   -1.1792 C.3     1  UNL1        0.1164
      6 C          58.8825   95.6292   -0.4972 C.3     1  UNL1        0.1138
      7 N          59.9259   94.8336   -1.2244 N.pl3   1  UNL1       -0.2884
      8 C          59.6785   94.3831   -2.6336 C.3     1  UNL1        0.1138
      9 C          58.3879   94.7283   -3.3156 C.3     1  UNL1        0.1164
     10 H          56.4914   94.8962   -5.1571 H       1  UNL1        0.1564
     11 C          61.2165   94.4885   -0.5423 C.ar    1  UNL1        0.1544
     12 N          62.5222   94.9005   -1.1550 N.ar    1  UNL1       -0.1974
     13 C          63.8127   94.5555   -0.4729 C.ar    1  UNL1        0.2154
     14 N          65.1185   94.9675   -1.0857 N.pl3   1  UNL1       -0.3274
     15 N          63.7977   93.7984    0.8220 N.ar    1  UNL1       -0.2057
     16 C          62.4920   93.3864    1.4347 C.ar    1  UNL1        0.1353
     17 S          62.1657   92.6379    2.6929 S.2     1  UNL1       -0.0472
     18 C          60.6734   92.5203    2.7885 C.ar    1  UNL1        0.1137
     19 N          60.0774   93.1962    1.5893 N.ar    1  UNL1       -0.2339
     20 C          61.2014   93.7315    0.7526 C.ar    1  UNL1        0.1372
     21 H          65.1283   95.4644   -1.9356 H       1  UNL1        0.1452
     22 H          65.9655   94.7411   -0.6381 H       1  UNL1        0.1452
     23 C          59.9108   91.8454    3.8898 C.ar    1  UNL1        0.0430
     24 C          60.5988   90.8525    4.7791 C.ar    1  UNL1        0.0052
     25 C          59.8362   90.1776    5.8805 C.ar    1  UNL1        0.0207
     26 C          58.3857   90.4955    6.0925 C.ar    1  UNL1        0.0989
     27 N          57.6977   91.4884    5.2032 N.ar    1  UNL1       -0.2423
     28 C          58.4603   92.1633    4.1018 C.ar    1  UNL1        0.1009
     29 C          51.9349   96.4536   -6.7261 C.ar    1  UNL1        0.1388
     30 C          52.0127   96.4453   -5.2282 C.ar    1  UNL1        0.0382
     31 C          53.3032   96.1002   -4.5460 C.ar    1  UNL1        0.0178
     32 C          54.5161   95.7634   -5.3619 C.ar    1  UNL1        0.0518
     33 C          54.4383   95.7717   -6.8599 C.ar    1  UNL1        0.0178
     34 C          53.1477   96.1168   -7.5420 C.ar    1  UNL1        0.0382
     35 C          49.5359   95.7899   -7.4707 C.3     1  UNL1        0.2525
     36 O          50.6442   96.7987   -7.4082 O.3     1  UNL1       -0.4714
@<TRIPOS>BOND
     1    35    36    1
     2    36    29    1
     3    29    30   ar
     4    30    31   ar
     5    31    32   ar
     6    32     1    1
     7     1     2   am
     8     2     3    2
     9     2     4   am
    10     4     5    1
    11     5     6    1
    12     6     7    1
    13     7    11    1
    14    11    12   ar
    15    12    13   ar
    16    13    14    1
    17    13    15   ar
    18    15    16   ar
    19    16    17   ar
    20    17    18   ar
    21    18    23    1
    22    23    24   ar
    23    24    25   ar
    24    25    26   ar
    25    26    27   ar
    26    27    28   ar
    27    18    19   ar
    28    19    20   ar
    29     7     8    1
    30     8     9    1
    31    32    33   ar
    32    33    34   ar
    33    34    29   ar
    34     9     4    1
    35    20    11   ar
    36    20    16   ar
    37    28    23   ar
    38     1    10    1
    39    14    21    1
    40    14    22    1
@<TRIPOS>MOLECULE
*****
 36 40 0 0 0
SMALL
GASTEIGER

@<TRIPOS>ATOM
      1 N          43.7368   81.2689   11.3342 N.am    1  UNL1       -0.2681
      2 C          43.7130   82.1120   12.5746 C.2     1  UNL1        0.3078
      3 O          43.6635   83.6071   12.4643 O.2     1  UNL1       -0.2522
      4 N          43.7387   81.4601   13.9252 N.am    1  UNL1       -0.2605
      5 C          43.7149   82.3032   15.1657 C.3     1  UNL1        0.1164
      6 C          43.7406   81.6512   16.5162 C.3     1  UNL1        0.1138
      7 N          43.7901   80.1560   16.6265 N.pl3   1  UNL1       -0.2884
      8 C          43.8139   79.3129   15.3862 C.3     1  UNL1        0.1138
      9 C          43.7882   79.9650   14.0355 C.3     1  UNL1        0.1164
     10 H          43.7693   80.2876   11.4065 H       1  UNL1        0.1564
     11 C          43.8158   79.5041   17.9772 C.ar    1  UNL1        0.1544
     12 N          43.7116   80.3423   19.2167 N.ar    1  UNL1       -0.1974
     13 C          43.7373   79.6904   20.5673 C.ar    1  UNL1        0.2154
     14 N          43.6332   80.5287   21.8069 N.pl3   1  UNL1       -0.3274
     15 N          43.8671   78.2001   20.6785 N.ar    1  UNL1       -0.2057
     16 C          43.9712   77.3619   19.4390 C.ar    1  UNL1        0.1353
     17 S          44.1076   75.8818   19.2368 S.2     1  UNL1       -0.0472
     18 C          44.1662   75.6191   17.7612 C.ar    1  UNL1        0.1137
     19 N          44.0661   76.9367   17.0514 N.ar    1  UNL1       -0.2339
     20 C          43.9456   78.0138   18.0883 C.ar    1  UNL1        0.1372
     21 H          43.5480   81.5068   21.7340 H       1  UNL1        0.1452
     22 H          43.6500   80.1008   22.6934 H       1  UNL1        0.1452
     23 C          44.3013   74.2747   17.1097 C.ar    1  UNL1        0.0430
     24 C          45.0291   74.1434   15.8047 C.ar    1  UNL1        0.0052
     25 C          45.1642   72.7990   15.1533 C.ar    1  UNL1        0.0207
     26 C          44.5714   71.5859   15.8067 C.ar    1  UNL1        0.0989
     27 N          43.8435   71.7172   17.1117 N.ar    1  UNL1       -0.2423
     28 C          43.7085   73.0617   17.7632 C.ar    1  UNL1        0.1009
     29 C          43.6598   83.2249    7.2823 C.ar    1  UNL1        0.1388
     30 C          43.7113   81.7298    7.3926 C.ar    1  UNL1        0.0382
     31 C          43.7370   81.0778    8.7431 C.ar    1  UNL1        0.0178
     32 C          43.7111   81.9208    9.9836 C.ar    1  UNL1        0.0518
     33 C          43.6595   83.4160    9.8733 C.ar    1  UNL1        0.0178
     34 C          43.6339   84.0680    8.5227 C.ar    1  UNL1        0.0382
     35 C          44.0051   85.3233    5.7898 C.3     1  UNL1        0.2525
     36 O          43.6341   83.8769    5.9316 O.3     1  UNL1       -0.4714
@<TRIPOS>BOND
     1    35    36    1
     2    36    29    1
     3    29    30   ar
     4    30    31   ar
     5    31    32   ar
     6    32     1    1
     7     1     2   am
     8     2     3    2
     9     2     4   am
    10     4     5    1
    11     5     6    1
    12     6     7    1
    13     7    11    1
    14    11    12   ar
    15    12    13   ar
    16    13    14    1
    17    13    15   ar
    18    15    16   ar
    19    16    17   ar
    20    17    18   ar
    21    18    23    1
    22    23    24   ar
    23    24    25   ar
    24    25    26   ar
    25    26    27   ar
    26    27    28   ar
    27    18    19   ar
    28    19    20   ar
    29     7     8    1
    30     8     9    1
    31    32    33   ar
    32    33    34   ar
    33    34    29   ar
    34     9     4    1
    35    20    11   ar
    36    20    16   ar
    37    28    23   ar
    38     1    10    1
    39    14    21    1
    40    14    22    1
