@<TRIPOS>MOLECULE
*****
 26 27 0 0 0
SMALL
GASTEIGER

@<TRIPOS>ATOM
      1 C          64.8518   92.0076   12.6707 C.ar    1  UNL1        0.1059
      2 C          63.9084   91.0812   11.9624 C.ar    1  UNL1        0.1558
      3 F          63.2732   91.5016   10.6701 F       1  UNL1       -0.2028
      4 C          63.6003   89.7343   12.5462 C.ar    1  UNL1        0.0356
      5 C          64.2354   89.3138   13.8384 C.ar    1  UNL1        0.0583
      6 C          65.1788   90.2402   14.5467 C.ar    1  UNL1        0.0356
      7 C          65.4869   91.5872   13.9629 C.ar    1  UNL1        0.1558
      8 F          66.4303   92.5136   14.6713 F       1  UNL1       -0.2028
      9 C          66.5303   93.6434   11.5497 C.2     1  UNL1        0.2262
     10 O          67.5926   92.5853   11.5963 O.2     1  UNL1       -0.2748
     11 N          65.1600   93.3545   12.0869 N.am    1  UNL1       -0.2804
     12 H          64.4628   94.0490   12.0563 H       1  UNL1        0.1550
     13 C          66.8385   94.9903   10.9659 C.3     1  UNL1        0.0854
     14 C          67.8984   94.3662    9.2375 C.3     1  UNL1        0.0005
     15 C          66.6913   95.2199    9.4908 C.3     1  UNL1        0.0086
     16 C          65.4842   96.0735    9.7441 C.3     1  UNL1        0.0005
     17 C          66.5441   95.4494    8.0158 C.3     1  UNL1        0.0005
     18 C          63.9273   87.9669   14.4222 C.2     1  UNL1        0.2510
     19 O          63.5871   87.8403   15.8776 O.2     1  UNL1       -0.2698
     20 N          63.9593   86.7465   13.5506 N.am    1  UNL1       -0.2606
     21 H          64.1825   86.8296   12.5954 H       1  UNL1        0.1571
     22 C          63.6511   85.3996   14.1345 C.ar    1  UNL1        0.1658
     23 N          62.2932   84.8998   14.5299 N.ar    1  UNL1       -0.2224
     24 C          62.4496   83.5073   15.0652 C.ar    1  UNL1        0.1079
     25 C          63.9041   83.1465   15.0006 C.ar    1  UNL1        0.0588
     26 S          64.6468   84.3160   14.4254 S.2     1  UNL1       -0.0508
@<TRIPOS>BOND
     1    14    15    1
     2    15    16    1
     3    15    17    1
     4    15    13    1
     5    13     9    1
     6     9    10    2
     7     9    11   am
     8    11     1    1
     9     1     2   ar
    10     2     3    1
    11     2     4   ar
    12     4     5   ar
    13     5    18    1
    14    18    19    2
    15    18    20   am
    16    20    22    1
    17    22    23   ar
    18    23    24   ar
    19    24    25   ar
    20    25    26   ar
    21     5     6   ar
    22     6     7   ar
    23     7     8    1
    24     7     1   ar
    25    26    22   ar
    26    11    12    1
    27    20    21    1
@<TRIPOS>MOLECULE
*****
 26 27 0 0 0
SMALL
GASTEIGER

@<TRIPOS>ATOM
      1 C          64.8250   91.9918   12.6390 C.ar    1  UNL1        0.1059
      2 C          65.4576   91.5827   13.9361 C.ar    1  UNL1        0.1558
      3 F          66.3900   92.5203   14.6444 F       1  UNL1       -0.2028
      4 C          65.1578   90.2361   14.5249 C.ar    1  UNL1        0.0356
      5 C          64.2255   89.2985   13.8167 C.ar    1  UNL1        0.0583
      6 C          63.5929   89.7076   12.5196 C.ar    1  UNL1        0.0356
      7 C          63.8927   91.0542   11.9307 C.ar    1  UNL1        0.1558
      8 F          63.2601   91.4633   10.6336 F       1  UNL1       -0.2028
      9 C          66.5118   93.6581   11.5770 C.2     1  UNL1        0.2262
     10 O          67.5991   92.6312   11.6926 O.2     1  UNL1       -0.2748
     11 N          65.1248   93.3384   12.0502 N.am    1  UNL1       -0.2804
     12 H          64.4112   94.0124   11.9743 H       1  UNL1        0.1550
     13 C          66.8116   95.0048   10.9881 C.3     1  UNL1        0.0854
     14 C          67.8588   94.3420    9.2665 C.3     1  UNL1        0.0005
     15 C          66.6715   95.2255    9.5110 C.3     1  UNL1        0.0086
     16 C          65.4843   96.1089    9.7556 C.3     1  UNL1        0.0005
     17 C          66.5315   95.4462    8.0340 C.3     1  UNL1        0.0005
     18 C          63.9257   87.9519   14.4055 C.2     1  UNL1        0.2510
     19 O          63.6238   87.8237   15.8692 O.2     1  UNL1       -0.2698
     20 N          63.9278   86.7335   13.5307 N.am    1  UNL1       -0.2606
     21 H          64.1259   86.8176   12.5700 H       1  UNL1        0.1571
     22 C          63.6280   85.3868   14.1195 C.ar    1  UNL1        0.1658
     23 N          62.2782   84.8928   14.5484 N.ar    1  UNL1       -0.2224
     24 C          62.4413   83.4984   15.0768 C.ar    1  UNL1        0.1079
     25 C          63.8920   83.1307   14.9745 C.ar    1  UNL1        0.0588
     26 S          64.6254   84.2978   14.3828 S.2     1  UNL1       -0.0508
@<TRIPOS>BOND
     1    14    15    1
     2    15    16    1
     3    15    17    1
     4    15    13    1
     5    13     9    1
     6     9    10    2
     7     9    11   am
     8    11     1    1
     9     1     2   ar
    10     2     3    1
    11     2     4   ar
    12     4     5   ar
    13     5    18    1
    14    18    19    2
    15    18    20   am
    16    20    22    1
    17    22    23   ar
    18    23    24   ar
    19    24    25   ar
    20    25    26   ar
    21     5     6   ar
    22     6     7   ar
    23     7     8    1
    24     7     1   ar
    25    26    22   ar
    26    11    12    1
    27    20    21    1
@<TRIPOS>MOLECULE
*****
 26 27 0 0 0
SMALL
GASTEIGER

@<TRIPOS>ATOM
      1 C          65.6286   92.8224   12.0011 C.ar    1  UNL1        0.1059
      2 C          66.1231   92.5477   13.3903 C.ar    1  UNL1        0.1558
      3 F          67.2349   93.3729   13.9675 F       1  UNL1       -0.2028
      4 C          65.5060   91.4478   14.2023 C.ar    1  UNL1        0.0356
      5 C          64.3943   90.6226   13.6252 C.ar    1  UNL1        0.0583
      6 C          63.8997   90.8974   12.2360 C.ar    1  UNL1        0.0356
      7 C          64.5168   91.9973   11.4240 C.ar    1  UNL1        0.1558
      8 F          64.0222   92.2720   10.0348 F       1  UNL1       -0.2028
      9 C          67.3209   93.6060   10.1923 C.2     1  UNL1        0.2262
     10 O          67.7791   92.1896   10.0075 O.2     1  UNL1       -0.2748
     11 N          66.2457   93.9223   11.1891 N.am    1  UNL1       -0.2804
     12 H          65.9450   94.8519   11.3104 H       1  UNL1        0.1550
     13 C          67.9381   94.7059    9.3803 C.3     1  UNL1        0.0854
     14 C          67.2238   96.5927   10.0356 C.3     1  UNL1        0.0005
     15 C          67.0714   95.7765    8.7865 C.3     1  UNL1        0.0086
     16 C          66.9189   94.9603    7.5373 C.3     1  UNL1        0.0005
     17 C          66.2047   96.8472    8.1927 C.3     1  UNL1        0.0005
     18 C          63.7772   89.5227   14.4372 C.2     1  UNL1        0.2510
     19 O          62.4139   89.7063   15.0352 O.2     1  UNL1       -0.2698
     20 N          64.5234   88.2392   14.6512 N.am    1  UNL1       -0.2606
     21 H          65.4181   88.1187   14.2587 H       1  UNL1        0.1571
     22 C          63.9062   87.1393   15.4632 C.ar    1  UNL1        0.1658
     23 N          63.1132   87.3130   16.7245 N.ar    1  UNL1       -0.2224
     24 C          62.6907   85.9537   17.1974 C.ar    1  UNL1        0.1079
     25 C          63.2225   84.9398   16.2282 C.ar    1  UNL1        0.0588
     26 S          63.9738   85.6725   15.1564 S.2     1  UNL1       -0.0508
@<TRIPOS>BOND
     1    14    15    1
     2    15    16    1
     3    15    17    1
     4    15    13    1
     5    13     9    1
     6     9    10    2
     7     9    11   am
     8    11     1    1
     9     1     2   ar
    10     2     3    1
    11     2     4   ar
    12     4     5   ar
    13     5    18    1
    14    18    19    2
    15    18    20   am
    16    20    22    1
    17    22    23   ar
    18    23    24   ar
    19    24    25   ar
    20    25    26   ar
    21     5     6   ar
    22     6     7   ar
    23     7     8    1
    24     7     1   ar
    25    26    22   ar
    26    11    12    1
    27    20    21    1
@<TRIPOS>MOLECULE
*****
 26 27 0 0 0
SMALL
GASTEIGER

@<TRIPOS>ATOM
      1 C          64.2799   91.7139   12.1541 C.ar    1  UNL1        0.1059
      2 C          64.6601   91.0499   13.4442 C.ar    1  UNL1        0.1558
      3 F          65.3947   91.8242   14.4983 F       1  UNL1       -0.2028
      4 C          64.3056   89.6117   13.6805 C.ar    1  UNL1        0.0356
      5 C          63.5711   88.8374   12.6265 C.ar    1  UNL1        0.0583
      6 C          63.1909   89.5014   11.3363 C.ar    1  UNL1        0.0356
      7 C          63.5454   90.9396   11.1001 C.ar    1  UNL1        0.1558
      8 F          63.1652   91.6036    9.8098 F       1  UNL1       -0.2028
      9 C          66.0727   93.5596   11.7943 C.2     1  UNL1        0.2262
     10 O          67.1566   92.5288   11.9070 O.2     1  UNL1       -0.2748
     11 N          64.6344   93.1521   11.9178 N.am    1  UNL1       -0.2804
     12 H          63.9230   93.8287   11.8438 H       1  UNL1        0.1550
     13 C          66.4271   94.9979   11.5581 C.3     1  UNL1        0.0854
     14 C          67.1727   94.5046    9.6344 C.3     1  UNL1        0.0005
     15 C          66.2932   95.5876   10.1853 C.3     1  UNL1        0.0086
     16 C          65.4137   96.6706   10.7363 C.3     1  UNL1        0.0005
     17 C          66.1593   96.1773    8.8127 C.3     1  UNL1        0.0005
     18 C          63.2166   87.3991   12.8627 C.2     1  UNL1        0.2510
     19 O          62.1887   86.7286   12.0004 O.2     1  UNL1       -0.2698
     20 N          63.8901   86.6314   13.9614 N.am    1  UNL1       -0.2606
     21 H          64.5647   87.0715   14.5274 H       1  UNL1        0.1571
     22 C          63.5356   85.1932   14.1976 C.ar    1  UNL1        0.1658
     23 N          62.2382   84.6845   14.7524 N.ar    1  UNL1       -0.2224
     24 C          62.3171   83.1880   14.8182 C.ar    1  UNL1        0.1079
     25 C          63.6633   82.7718   14.3040 C.ar    1  UNL1        0.0588
     26 S          64.4165   84.0110   13.9205 S.2     1  UNL1       -0.0508
@<TRIPOS>BOND
     1    14    15    1
     2    15    16    1
     3    15    17    1
     4    15    13    1
     5    13     9    1
     6     9    10    2
     7     9    11   am
     8    11     1    1
     9     1     2   ar
    10     2     3    1
    11     2     4   ar
    12     4     5   ar
    13     5    18    1
    14    18    19    2
    15    18    20   am
    16    20    22    1
    17    22    23   ar
    18    23    24   ar
    19    24    25   ar
    20    25    26   ar
    21     5     6   ar
    22     6     7   ar
    23     7     8    1
    24     7     1   ar
    25    26    22   ar
    26    11    12    1
    27    20    21    1
@<TRIPOS>MOLECULE
*****
 26 27 0 0 0
SMALL
GASTEIGER

@<TRIPOS>ATOM
      1 C          64.9676   91.0579   13.3260 C.ar    1  UNL1        0.1059
      2 C          64.6005   91.8440   12.1024 C.ar    1  UNL1        0.1558
      3 F          65.3474   93.1008   11.7664 F       1  UNL1       -0.2028
      4 C          63.4867   91.3734   11.2147 C.ar    1  UNL1        0.0356
      5 C          62.7399   90.1167   11.5507 C.ar    1  UNL1        0.0583
      6 C          63.1069   89.3306   12.7743 C.ar    1  UNL1        0.0356
      7 C          64.2208   89.8012   13.6619 C.ar    1  UNL1        0.1558
      8 F          64.5878   89.0149   14.8856 F       1  UNL1       -0.2028
      9 C          65.7718   92.1097   15.5613 C.2     1  UNL1        0.2262
     10 O          64.3483   92.2205   16.0214 O.2     1  UNL1       -0.2748
     11 N          66.0814   91.5285   14.2136 N.am    1  UNL1       -0.2804
     12 H          67.0156   91.4558   13.9117 H       1  UNL1        0.1550
     13 C          66.8856   92.5803   16.4490 C.3     1  UNL1        0.0854
     14 C          68.8597   91.8323   16.6578 C.3     1  UNL1        0.0005
     15 C          68.2198   92.9280   15.8579 C.3     1  UNL1        0.0086
     16 C          67.5799   94.0238   15.0581 C.3     1  UNL1        0.0005
     17 C          69.5539   93.2757   15.2670 C.3     1  UNL1        0.0005
     18 C          61.6261   89.6461   10.6630 C.2     1  UNL1        0.2510
     19 O          60.3080   90.3619   10.6701 O.2     1  UNL1       -0.2698
     20 N          61.8304   88.4597    9.7682 N.am    1  UNL1       -0.2606
     21 H          62.6955   87.9898    9.7636 H       1  UNL1        0.1571
     22 C          60.7166   87.9891    8.8806 C.ar    1  UNL1        0.1658
     23 N          59.8568   88.8564    8.0097 N.ar    1  UNL1       -0.2224
     24 C          58.8758   87.9720    7.2988 C.ar    1  UNL1        0.1079
     25 C          59.1293   86.5579    7.7304 C.ar    1  UNL1        0.0588
     26 S          60.2669   86.5684    8.7080 S.2     1  UNL1       -0.0508
@<TRIPOS>BOND
     1    14    15    1
     2    15    16    1
     3    15    17    1
     4    15    13    1
     5    13     9    1
     6     9    10    2
     7     9    11   am
     8    11     1    1
     9     1     2   ar
    10     2     3    1
    11     2     4   ar
    12     4     5   ar
    13     5    18    1
    14    18    19    2
    15    18    20   am
    16    20    22    1
    17    22    23   ar
    18    23    24   ar
    19    24    25   ar
    20    25    26   ar
    21     5     6   ar
    22     6     7   ar
    23     7     8    1
    24     7     1   ar
    25    26    22   ar
    26    11    12    1
    27    20    21    1
@<TRIPOS>MOLECULE
*****
 26 27 0 0 0
SMALL
GASTEIGER

@<TRIPOS>ATOM
      1 C          65.3006   92.8673   12.1390 C.ar    1  UNL1        0.1059
      2 C          64.3316   91.9877   11.4060 C.ar    1  UNL1        0.1558
      3 F          63.8225   92.3951   10.0551 F       1  UNL1       -0.2028
      4 C          63.8717   90.7006   12.0239 C.ar    1  UNL1        0.0356
      5 C          64.3807   90.2931   13.3748 C.ar    1  UNL1        0.0583
      6 C          65.3497   91.1727   14.1077 C.ar    1  UNL1        0.0356
      7 C          65.8097   92.4598   13.4898 C.ar    1  UNL1        0.1558
      8 F          66.7787   93.3395   14.2228 F       1  UNL1       -0.2028
      9 C          66.8486   94.1440   10.4886 C.2     1  UNL1        0.2262
     10 O          67.4768   92.8465   10.0740 O.2     1  UNL1       -0.2748
     11 N          65.7606   94.1544   11.5211 N.am    1  UNL1       -0.2804
     12 H          65.3483   95.0060   11.7932 H       1  UNL1        0.1550
     13 C          67.3086   95.4311    9.8707 C.3     1  UNL1        0.0854
     14 C          65.7368   96.8556    9.8550 C.3     1  UNL1        0.0005
     15 C          66.4832   96.0882    8.8043 C.3     1  UNL1        0.0086
     16 C          67.2296   95.3207    7.7537 C.3     1  UNL1        0.0005
     17 C          65.6578   96.7452    7.7380 C.3     1  UNL1        0.0005
     18 C          63.9208   89.0060   13.9927 C.2     1  UNL1        0.2510
     19 O          63.4559   87.8787   13.1191 O.2     1  UNL1       -0.2698
     20 N          63.9258   88.8461   15.4841 N.am    1  UNL1       -0.2606
     21 H          64.2309   89.5860   16.0574 H       1  UNL1        0.1571
     22 C          63.4658   87.5590   16.1020 C.ar    1  UNL1        0.1658
     23 N          63.6679   86.1860   15.5328 N.ar    1  UNL1       -0.2224
     24 C          63.0500   85.1973   16.4766 C.ar    1  UNL1        0.1079
     25 C          62.4660   85.9593   17.6291 C.ar    1  UNL1        0.0588
     26 S          62.7230   87.4189   17.3976 S.2     1  UNL1       -0.0508
@<TRIPOS>BOND
     1    14    15    1
     2    15    16    1
     3    15    17    1
     4    15    13    1
     5    13     9    1
     6     9    10    2
     7     9    11   am
     8    11     1    1
     9     1     2   ar
    10     2     3    1
    11     2     4   ar
    12     4     5   ar
    13     5    18    1
    14    18    19    2
    15    18    20   am
    16    20    22    1
    17    22    23   ar
    18    23    24   ar
    19    24    25   ar
    20    25    26   ar
    21     5     6   ar
    22     6     7   ar
    23     7     8    1
    24     7     1   ar
    25    26    22   ar
    26    11    12    1
    27    20    21    1
@<TRIPOS>MOLECULE
*****
 26 27 0 0 0
SMALL
GASTEIGER

@<TRIPOS>ATOM
      1 C          62.6382   89.2836   10.9477 C.ar    1  UNL1        0.1059
      2 C          63.1170   88.5655   12.1744 C.ar    1  UNL1        0.1558
      3 F          62.7328   87.1337   12.4033 F       1  UNL1       -0.2028
      4 C          63.9801   89.2792   13.1723 C.ar    1  UNL1        0.0356
      5 C          64.3644   90.7109   12.9435 C.ar    1  UNL1        0.0583
      6 C          63.8856   91.4290   11.7167 C.ar    1  UNL1        0.0356
      7 C          63.0225   90.7154   10.7188 C.ar    1  UNL1        0.1558
      8 F          62.5436   91.4336    9.4920 F       1  UNL1       -0.2028
      9 C          60.4163   88.0770   10.3503 C.2     1  UNL1        0.2262
     10 O          59.9204   88.2977   11.7487 O.2     1  UNL1       -0.2748
     11 N          61.7751   88.5700    9.9498 N.am    1  UNL1       -0.2804
     12 H          62.1005   88.4252    9.0320 H       1  UNL1        0.1550
     13 C          59.5531   87.3634    9.3524 C.3     1  UNL1        0.0854
     14 C          59.2680   87.0038    7.2813 C.3     1  UNL1        0.0005
     15 C          60.1767   86.4504    8.3386 C.3     1  UNL1        0.0086
     16 C          61.0854   85.8970    9.3959 C.3     1  UNL1        0.0005
     17 C          60.8002   85.5374    7.3249 C.3     1  UNL1        0.0005
     18 C          65.2275   91.4245   13.9414 C.2     1  UNL1        0.2510
     19 O          64.6696   91.8016   15.2817 O.2     1  UNL1       -0.2698
     20 N          66.6486   91.7610   13.5990 N.am    1  UNL1       -0.2606
     21 H          67.0148   91.5136   12.7193 H       1  UNL1        0.1571
     22 C          67.5117   92.4747   14.5969 C.ar    1  UNL1        0.1658
     23 N          67.6516   93.9614   14.7379 N.ar    1  UNL1       -0.2224
     24 C          68.6128   94.2325   15.8572 C.ar    1  UNL1        0.1079
     25 C          69.0669   92.9132   16.4078 C.ar    1  UNL1        0.0588
     26 S          68.3864   91.8267   15.6290 S.2     1  UNL1       -0.0508
@<TRIPOS>BOND
     1    14    15    1
     2    15    16    1
     3    15    17    1
     4    15    13    1
     5    13     9    1
     6     9    10    2
     7     9    11   am
     8    11     1    1
     9     1     2   ar
    10     2     3    1
    11     2     4   ar
    12     4     5   ar
    13     5    18    1
    14    18    19    2
    15    18    20   am
    16    20    22    1
    17    22    23   ar
    18    23    24   ar
    19    24    25   ar
    20    25    26   ar
    21     5     6   ar
    22     6     7   ar
    23     7     8    1
    24     7     1   ar
    25    26    22   ar
    26    11    12    1
    27    20    21    1
@<TRIPOS>MOLECULE
*****
 26 27 0 0 0
SMALL
GASTEIGER

@<TRIPOS>ATOM
      1 C          62.6468   89.2769   10.9645 C.ar    1  UNL1        0.1059
      2 C          63.0229   90.7105   10.7340 C.ar    1  UNL1        0.1558
      3 F          62.5357   91.4262    9.5090 F       1  UNL1       -0.2028
      4 C          63.8862   91.4286   11.7286 C.ar    1  UNL1        0.0356
      5 C          64.3734   90.7131   12.9535 C.ar    1  UNL1        0.0583
      6 C          63.9973   89.2794   13.1840 C.ar    1  UNL1        0.0356
      7 C          63.1340   88.5613   12.1895 C.ar    1  UNL1        0.1558
      8 F          62.7579   87.1276   12.4200 F       1  UNL1       -0.2028
      9 C          60.4250   88.0669   10.3732 C.2     1  UNL1        0.2262
     10 O          59.9298   88.2930   11.7710 O.2     1  UNL1       -0.2748
     11 N          61.7835   88.5588    9.9700 N.am    1  UNL1       -0.2804
     12 H          62.1084   88.4104    9.0526 H       1  UNL1        0.1550
     13 C          59.5617   87.3488    9.3787 C.3     1  UNL1        0.0854
     14 C          59.2734   87.0002    7.3062 C.3     1  UNL1        0.0005
     15 C          60.1866   86.4441    8.3583 C.3     1  UNL1        0.0086
     16 C          61.0997   85.8880    9.4104 C.3     1  UNL1        0.0005
     17 C          60.8114   85.5395    7.3379 C.3     1  UNL1        0.0005
     18 C          65.2367   91.4311   13.9480 C.2     1  UNL1        0.2510
     19 O          64.6779   91.8178   15.2852 O.2     1  UNL1       -0.2698
     20 N          66.6589   91.7626   13.6053 N.am    1  UNL1       -0.2606
     21 H          67.0257   91.5088   12.7277 H       1  UNL1        0.1571
     22 C          67.5222   92.4807   14.5998 C.ar    1  UNL1        0.1658
     23 N          67.6600   93.9681   14.7361 N.ar    1  UNL1       -0.2224
     24 C          68.6223   94.2441   15.8532 C.ar    1  UNL1        0.1079
     25 C          69.0793   92.9273   16.4073 C.ar    1  UNL1        0.0588
     26 S          68.3994   91.8373   15.6327 S.2     1  UNL1       -0.0508
@<TRIPOS>BOND
     1    14    15    1
     2    15    16    1
     3    15    17    1
     4    15    13    1
     5    13     9    1
     6     9    10    2
     7     9    11   am
     8    11     1    1
     9     1     2   ar
    10     2     3    1
    11     2     4   ar
    12     4     5   ar
    13     5    18    1
    14    18    19    2
    15    18    20   am
    16    20    22    1
    17    22    23   ar
    18    23    24   ar
    19    24    25   ar
    20    25    26   ar
    21     5     6   ar
    22     6     7   ar
    23     7     8    1
    24     7     1   ar
    25    26    22   ar
    26    11    12    1
    27    20    21    1
@<TRIPOS>MOLECULE
*****
 26 27 0 0 0
SMALL
GASTEIGER

@<TRIPOS>ATOM
      1 C          62.9998   86.5015   13.0806 C.ar    1  UNL1        0.1059
      2 C          63.6622   86.5373   14.4260 C.ar    1  UNL1        0.1558
      3 F          63.6932   85.3042   15.2797 F       1  UNL1       -0.2028
      4 C          64.2934   87.8060   14.9177 C.ar    1  UNL1        0.0356
      5 C          64.2624   89.0390   14.0641 C.ar    1  UNL1        0.0583
      6 C          63.6001   89.0033   12.7188 C.ar    1  UNL1        0.0356
      7 C          62.9688   87.7345   12.2270 C.ar    1  UNL1        0.1558
      8 F          62.3065   87.6988   10.8816 F       1  UNL1       -0.2028
      9 C          63.1989   83.9934   12.4330 C.2     1  UNL1        0.2262
     10 O          64.6606   84.0226   12.7689 O.2     1  UNL1       -0.2748
     11 N          62.3686   85.2328   12.5889 N.am    1  UNL1       -0.2804
     12 H          61.4093   85.2136   12.3685 H       1  UNL1        0.1550
     13 C          62.5676   82.7246   11.9413 C.3     1  UNL1        0.0854
     14 C          63.1323   80.7055   11.6183 C.3     1  UNL1        0.0005
     15 C          62.6125   81.4873   12.7882 C.3     1  UNL1        0.0086
     16 C          62.0927   82.2691   13.9580 C.3     1  UNL1        0.0005
     17 C          62.6575   80.2501   13.6350 C.3     1  UNL1        0.0005
     18 C          64.8936   90.3077   14.5559 C.2     1  UNL1        0.2510
     19 O          64.0917   91.2766   15.3732 O.2     1  UNL1       -0.2698
     20 N          66.3268   90.6075   14.2303 N.am    1  UNL1       -0.2606
     21 H          66.8532   89.9716   13.6938 H       1  UNL1        0.1571
     22 C          66.9581   91.8763   14.7220 C.ar    1  UNL1        0.1658
     23 N          67.9053   91.9991   15.8786 N.ar    1  UNL1       -0.2224
     24 C          68.2856   93.4437   16.0149 C.ar    1  UNL1        0.1079
     25 C          67.5735   94.2137   14.9425 C.ar    1  UNL1        0.0588
     26 S          66.7530   93.2450   14.1434 S.2     1  UNL1       -0.0508
@<TRIPOS>BOND
     1    14    15    1
     2    15    16    1
     3    15    17    1
     4    15    13    1
     5    13     9    1
     6     9    10    2
     7     9    11   am
     8    11     1    1
     9     1     2   ar
    10     2     3    1
    11     2     4   ar
    12     4     5   ar
    13     5    18    1
    14    18    19    2
    15    18    20   am
    16    20    22    1
    17    22    23   ar
    18    23    24   ar
    19    24    25   ar
    20    25    26   ar
    21     5     6   ar
    22     6     7   ar
    23     7     8    1
    24     7     1   ar
    25    26    22   ar
    26    11    12    1
    27    20    21    1
