@<TRIPOS>MOLECULE
*****
 33 38 0 0 0
SMALL
GASTEIGER

@<TRIPOS>ATOM
      1 C          63.2420   90.6293   12.4717 C.3     1  UNL1        0.0749
      2 C          64.3549   91.6155   12.2750 C.3     1  UNL1        0.0444
      3 C          65.4248   91.7565   13.3168 C.ar    1  UNL1       -0.0101
      4 C          65.3817   90.9113   14.5553 C.ar    1  UNL1       -0.0091
      5 C          66.4516   91.0524   15.5972 C.ar    1  UNL1       -0.0032
      6 C          67.5646   92.0386   15.4005 C.ar    1  UNL1        0.0010
      7 C          67.6077   92.8838   14.1620 C.ar    1  UNL1        0.0142
      8 C          66.5378   92.7427   13.1202 C.ar    1  UNL1        0.0436
      9 C          64.2688   89.9251   14.7520 C.3     1  UNL1        0.0954
     10 N          63.1989   89.7841   13.7101 N.3     1  UNL1       -0.2934
     11 H          62.3109   89.9824   14.1712 H       1  UNL1        0.1236
     12 N          66.5809   93.5879   11.8817 N.pl3   1  UNL1       -0.3049
     13 C          67.0748   93.0032   10.5916 C.3     1  UNL1        0.1081
     14 C          67.1179   93.8484    9.3531 C.3     1  UNL1        0.0938
     15 N          66.6671   95.2782    9.4047 N.3     1  UNL1       -0.2711
     16 C          66.1733   95.8627   10.6948 C.3     1  UNL1        0.0938
     17 C          66.1302   95.0176   11.9333 C.3     1  UNL1        0.1081
     18 C          66.7102   96.1233    8.1662 C.3     1  UNL1        0.0577
     19 C          65.9979   96.8557    7.0680 C.3     1  UNL1        0.0173
     20 C          67.4970   96.8548    7.1195 C.3     1  UNL1        0.0173
     21 C          62.1720   90.4882   11.4298 C.3     1  UNL1        0.0886
     22 C          59.8489   89.7316   12.3133 C.3     1  UNL1        0.0899
     23 N          61.1191   89.4298   11.5746 N.3     1  UNL1       -0.2667
     24 C          61.3362   88.0696   10.9808 C.3     1  UNL1        0.0978
     25 C          62.2043   87.0720   11.6887 C.3     1  UNL1        0.0224
     26 C          62.4214   85.7118   11.0949 C.3     1  UNL1        0.0065
     27 C          61.7705   85.3491    9.7931 C.3     1  UNL1        0.0277
     28 C          60.9023   86.3467    9.0851 C.ar    1  UNL1       -0.0073
     29 C          60.2514   85.9841    7.7833 C.ar    1  UNL1       -0.0015
     30 C          59.3833   86.9816    7.0753 C.ar    1  UNL1        0.0203
     31 C          59.1662   88.3419    7.6692 C.ar    1  UNL1        0.0985
     32 N          59.8171   88.7045    8.9710 N.ar    1  UNL1       -0.2471
     33 C          60.6852   87.7069    9.6789 C.ar    1  UNL1        0.0695
@<TRIPOS>BOND
     1    22    23    1
     2    23    21    1
     3     1    21    1
     4     1     2    1
     5     2     3    1
     6     3     4   ar
     7     4     5   ar
     8     5     6   ar
     9     6     7   ar
    10     7     8   ar
    11     8    12    1
    12    12    13    1
    13    13    14    1
    14    14    15    1
    15    15    18    1
    16    18    19    1
    17    19    20    1
    18    15    16    1
    19    16    17    1
    20     4     9    1
    21     9    10    1
    22    24    23    1
    23    24    25    1
    24    25    26    1
    25    26    27    1
    26    27    28    1
    27    28    29   ar
    28    29    30   ar
    29    30    31   ar
    30    31    32   ar
    31    32    33   ar
    32    10     1    1
    33    33    24    1
    34     8     3   ar
    35    17    12    1
    36    33    28   ar
    37    20    18    1
    38    10    11    1
@<TRIPOS>MOLECULE
*****
 33 38 0 0 0
SMALL
GASTEIGER

@<TRIPOS>ATOM
      1 C          63.8512   91.7031   10.7610 C.3     1  UNL1        0.0749
      2 C          64.1510   91.3203   12.1800 C.3     1  UNL1        0.0444
      3 C          65.1225   92.1305   12.9860 C.ar    1  UNL1       -0.0101
      4 C          65.7943   93.3234   12.3730 C.ar    1  UNL1       -0.0091
      5 C          66.7659   94.1336   13.1791 C.ar    1  UNL1       -0.0032
      6 C          67.0657   93.7508   14.5981 C.ar    1  UNL1        0.0010
      7 C          66.3939   92.5579   15.2111 C.ar    1  UNL1        0.0142
      8 C          65.4224   91.7477   14.4051 C.ar    1  UNL1        0.0436
      9 C          65.4945   93.7061   10.9540 C.3     1  UNL1        0.0954
     10 N          64.5229   92.8960   10.1480 N.3     1  UNL1       -0.2934
     11 H          65.0284   92.5603    9.3282 H       1  UNL1        0.1236
     12 N          64.7507   90.5548   15.0180 N.pl3   1  UNL1       -0.3049
     13 C          64.9575   89.1917   14.4272 C.3     1  UNL1        0.1081
     14 C          64.2858   87.9988   15.0401 C.3     1  UNL1        0.0938
     15 N          63.4072   88.1690   16.2440 N.3     1  UNL1       -0.2711
     16 C          63.2004   89.5321   16.8348 C.3     1  UNL1        0.0938
     17 C          63.8722   90.7250   16.2218 C.3     1  UNL1        0.1081
     18 C          62.7355   86.9761   16.8570 C.3     1  UNL1        0.0577
     19 C          61.9380   85.7146   16.7068 C.3     1  UNL1        0.0173
     20 C          62.3695   86.1715   18.0688 C.3     1  UNL1        0.0173
     21 C          62.8796   90.8929    9.9549 C.3     1  UNL1        0.0886
     22 C          60.7904   90.8194   11.4976 C.3     1  UNL1        0.0899
     23 N          61.8011   90.1113   10.6447 N.3     1  UNL1       -0.2667
     24 C          61.7331   88.6218   10.4817 C.3     1  UNL1        0.0978
     25 C          62.5103   87.7301   11.4040 C.3     1  UNL1        0.0224
     26 C          62.4423   86.2405   11.2410 C.3     1  UNL1        0.0065
     27 C          61.5971   85.6427   10.1556 C.3     1  UNL1        0.0277
     28 C          60.8198   86.5343    9.2332 C.ar    1  UNL1       -0.0073
     29 C          59.9746   85.9365    8.1478 C.ar    1  UNL1       -0.0015
     30 C          59.1974   86.8281    7.2255 C.ar    1  UNL1        0.0203
     31 C          59.2654   88.3177    7.3885 C.ar    1  UNL1        0.0985
     32 N          60.1106   88.9156    8.4739 N.ar    1  UNL1       -0.2471
     33 C          60.8878   88.0239    9.3962 C.ar    1  UNL1        0.0695
@<TRIPOS>BOND
     1    22    23    1
     2    23    21    1
     3     1    21    1
     4     1     2    1
     5     2     3    1
     6     3     4   ar
     7     4     5   ar
     8     5     6   ar
     9     6     7   ar
    10     7     8   ar
    11     8    12    1
    12    12    13    1
    13    13    14    1
    14    14    15    1
    15    15    18    1
    16    18    19    1
    17    19    20    1
    18    15    16    1
    19    16    17    1
    20     4     9    1
    21     9    10    1
    22    24    23    1
    23    24    25    1
    24    25    26    1
    25    26    27    1
    26    27    28    1
    27    28    29   ar
    28    29    30   ar
    29    30    31   ar
    30    31    32   ar
    31    32    33   ar
    32    10     1    1
    33    33    24    1
    34     8     3   ar
    35    17    12    1
    36    33    28   ar
    37    20    18    1
    38    10    11    1
@<TRIPOS>MOLECULE
*****
 33 38 0 0 0
SMALL
GASTEIGER

@<TRIPOS>ATOM
      1 C          64.4575   86.7740   14.4738 C.3     1  UNL1        0.0749
      2 C          63.6495   86.3125   13.2973 C.3     1  UNL1        0.0444
      3 C          63.4682   84.8457   13.0411 C.ar    1  UNL1       -0.0101
      4 C          64.0950   83.8405   13.9613 C.ar    1  UNL1       -0.0091
      5 C          63.9137   82.3737   13.7050 C.ar    1  UNL1       -0.0032
      6 C          63.1057   81.9121   12.5286 C.ar    1  UNL1        0.0010
      7 C          62.4789   82.9173   11.6084 C.ar    1  UNL1        0.0142
      8 C          62.6602   84.3841   11.8646 C.ar    1  UNL1        0.0436
      9 C          64.9030   84.3021   15.1377 C.3     1  UNL1        0.0954
     10 N          65.0842   85.7688   15.3940 N.3     1  UNL1       -0.2934
     11 H          66.0885   85.9474   15.3850 H       1  UNL1        0.1236
     12 N          62.0334   85.3892   10.9445 N.pl3   1  UNL1       -0.3049
     13 C          61.0331   86.3721   11.4769 C.3     1  UNL1        0.1081
     14 C          60.4063   87.3773   10.5567 C.3     1  UNL1        0.0938
     15 N          60.7799   87.3996    9.1041 N.3     1  UNL1       -0.2711
     16 C          61.7801   86.4168    8.5717 C.3     1  UNL1        0.0938
     17 C          62.4069   85.4116    9.4919 C.3     1  UNL1        0.1081
     18 C          60.1531   88.4048    8.1839 C.3     1  UNL1        0.0577
     19 C          59.9678   89.8277    7.7470 C.3     1  UNL1        0.0173
     20 C          59.2529   88.7229    7.0270 C.3     1  UNL1        0.0173
     21 C          64.6388   88.2409   14.7300 C.3     1  UNL1        0.0886
     22 C          62.3972   89.4124   15.3242 C.3     1  UNL1        0.0899
     23 N          63.5439   89.2044   14.3797 N.3     1  UNL1       -0.2667
     24 C          63.5955   89.9599   13.0849 C.3     1  UNL1        0.0978
     25 C          62.7440   89.5260   11.9289 C.3     1  UNL1        0.0224
     26 C          62.7956   90.2815   10.6341 C.3     1  UNL1        0.0065
     27 C          63.6988   91.4710   10.4954 C.3     1  UNL1        0.0277
     28 C          64.5504   91.9050   11.6514 C.ar    1  UNL1       -0.0073
     29 C          65.4536   93.0945   11.5127 C.ar    1  UNL1       -0.0015
     30 C          66.3051   93.5285   12.6688 C.ar    1  UNL1        0.0203
     31 C          66.2535   92.7729   13.9636 C.ar    1  UNL1        0.0985
     32 N          65.3503   91.5834   14.1023 N.ar    1  UNL1       -0.2471
     33 C          64.4988   91.1495   12.9462 C.ar    1  UNL1        0.0695
@<TRIPOS>BOND
     1    22    23    1
     2    23    21    1
     3     1    21    1
     4     1     2    1
     5     2     3    1
     6     3     4   ar
     7     4     5   ar
     8     5     6   ar
     9     6     7   ar
    10     7     8   ar
    11     8    12    1
    12    12    13    1
    13    13    14    1
    14    14    15    1
    15    15    18    1
    16    18    19    1
    17    19    20    1
    18    15    16    1
    19    16    17    1
    20     4     9    1
    21     9    10    1
    22    24    23    1
    23    24    25    1
    24    25    26    1
    25    26    27    1
    26    27    28    1
    27    28    29   ar
    28    29    30   ar
    29    30    31   ar
    30    31    32   ar
    31    32    33   ar
    32    10     1    1
    33    33    24    1
    34     8     3   ar
    35    17    12    1
    36    33    28   ar
    37    20    18    1
    38    10    11    1
@<TRIPOS>MOLECULE
*****
 33 38 0 0 0
SMALL
GASTEIGER

@<TRIPOS>ATOM
      1 C          63.1136   86.4119   12.8197 C.3     1  UNL1        0.0749
      2 C          63.4328   87.8746   12.7265 C.3     1  UNL1        0.0444
      3 C          62.6756   88.7480   11.7706 C.ar    1  UNL1       -0.0101
      4 C          61.5992   88.1588   10.9080 C.ar    1  UNL1       -0.0091
      5 C          60.8420   89.0323    9.9520 C.ar    1  UNL1       -0.0032
      6 C          61.1612   90.4949    9.8588 C.ar    1  UNL1        0.0010
      7 C          62.2376   91.0841   10.7215 C.ar    1  UNL1        0.0142
      8 C          62.9948   90.2107   11.6774 C.ar    1  UNL1        0.0436
      9 C          61.2800   86.6961   11.0012 C.3     1  UNL1        0.0954
     10 N          62.0372   85.8227   11.9571 N.3     1  UNL1       -0.2934
     11 H          62.4747   85.0879   11.4011 H       1  UNL1        0.1236
     12 N          64.0712   90.7999   12.5401 N.pl3   1  UNL1       -0.3049
     13 C          64.2689   90.2985   13.9399 C.3     1  UNL1        0.1081
     14 C          65.3453   90.8878   14.8026 C.3     1  UNL1        0.0938
     15 N          66.2239   91.9784   14.2654 N.3     1  UNL1       -0.2711
     16 C          66.0262   92.4798   12.8656 C.3     1  UNL1        0.0938
     17 C          64.9498   91.8905   12.0029 C.3     1  UNL1        0.1081
     18 C          67.3003   92.5676   15.1281 C.3     1  UNL1        0.0577
     19 C          68.4671   92.3882   16.0535 C.3     1  UNL1        0.0173
     20 C          67.9978   93.7676   15.6969 C.3     1  UNL1        0.0173
     21 C          63.8708   85.5384   13.7757 C.3     1  UNL1        0.0886
     22 C          62.7979   84.9035   16.0551 C.3     1  UNL1        0.0899
     23 N          63.1352   84.5541   14.6358 N.3     1  UNL1       -0.2667
     24 C          62.7367   83.2204   14.0768 C.3     1  UNL1        0.0978
     25 C          61.8720   82.2973   14.8830 C.3     1  UNL1        0.0224
     26 C          61.4736   80.9636   14.3240 C.3     1  UNL1        0.0065
     27 C          61.9398   80.5531   12.9587 C.3     1  UNL1        0.0277
     28 C          62.8046   81.4762   12.1524 C.ar    1  UNL1       -0.0073
     29 C          63.2708   81.0657   10.7871 C.ar    1  UNL1       -0.0015
     30 C          64.1355   81.9889    9.9808 C.ar    1  UNL1        0.0203
     31 C          64.5339   83.3226   10.5399 C.ar    1  UNL1        0.0985
     32 N          64.0677   83.7331   11.9052 N.ar    1  UNL1       -0.2471
     33 C          63.2030   82.8099   12.7114 C.ar    1  UNL1        0.0695
@<TRIPOS>BOND
     1    22    23    1
     2    23    21    1
     3     1    21    1
     4     1     2    1
     5     2     3    1
     6     3     4   ar
     7     4     5   ar
     8     5     6   ar
     9     6     7   ar
    10     7     8   ar
    11     8    12    1
    12    12    13    1
    13    13    14    1
    14    14    15    1
    15    15    18    1
    16    18    19    1
    17    19    20    1
    18    15    16    1
    19    16    17    1
    20     4     9    1
    21     9    10    1
    22    24    23    1
    23    24    25    1
    24    25    26    1
    25    26    27    1
    26    27    28    1
    27    28    29   ar
    28    29    30   ar
    29    30    31   ar
    30    31    32   ar
    31    32    33   ar
    32    10     1    1
    33    33    24    1
    34     8     3   ar
    35    17    12    1
    36    33    28   ar
    37    20    18    1
    38    10    11    1
@<TRIPOS>MOLECULE
*****
 33 38 0 0 0
SMALL
GASTEIGER

@<TRIPOS>ATOM
      1 C          62.9498   86.4365   12.9171 C.3     1  UNL1        0.0749
      2 C          63.3445   87.8751   12.7600 C.3     1  UNL1        0.0444
      3 C          62.7006   88.7179   11.6993 C.ar    1  UNL1       -0.0101
      4 C          61.6621   88.1220   10.7958 C.ar    1  UNL1       -0.0091
      5 C          61.0181   88.9649    9.7350 C.ar    1  UNL1       -0.0032
      6 C          61.4128   90.4034    9.5779 C.ar    1  UNL1        0.0010
      7 C          62.4513   90.9993   10.4815 C.ar    1  UNL1        0.0142
      8 C          63.0952   90.1565   11.5422 C.ar    1  UNL1        0.0436
      9 C          61.2674   86.6835   10.9529 C.3     1  UNL1        0.0954
     10 N          61.9113   85.8407   12.0136 N.3     1  UNL1       -0.2934
     11 H          62.3520   85.0538   11.5372 H       1  UNL1        0.1236
     12 N          64.1337   90.7523   12.4458 N.pl3   1  UNL1       -0.3049
     13 C          65.0325   91.8415   11.9396 C.3     1  UNL1        0.1081
     14 C          66.0710   92.4373   12.8432 C.3     1  UNL1        0.0938
     15 N          66.2108   91.9439   14.2529 N.3     1  UNL1       -0.2711
     16 C          65.3121   90.8549   14.7590 C.3     1  UNL1        0.0938
     17 C          64.2735   90.2591   13.8554 C.3     1  UNL1        0.1081
     18 C          67.2493   92.5398   15.1565 C.3     1  UNL1        0.0577
     19 C          68.3376   92.3692   16.1746 C.3     1  UNL1        0.0173
     20 C          67.9599   93.7423   15.7034 C.3     1  UNL1        0.0173
     21 C          63.5938   85.5937   13.9779 C.3     1  UNL1        0.0886
     22 C          65.9174   84.4741   14.2899 C.3     1  UNL1        0.0899
     23 N          64.5891   84.5386   13.5959 N.3     1  UNL1       -0.2667
     24 C          64.2563   83.5479   12.5199 C.3     1  UNL1        0.0978
     25 C          64.6785   83.8080   11.1043 C.3     1  UNL1        0.0224
     26 C          64.3457   82.8173   10.0283 C.3     1  UNL1        0.0065
     27 C          63.5906   81.5665   10.3679 C.3     1  UNL1        0.0277
     28 C          63.1683   81.3064   11.7836 C.ar    1  UNL1       -0.0073
     29 C          62.4132   80.0557   12.1232 C.ar    1  UNL1       -0.0015
     30 C          61.9909   79.7956   13.5388 C.ar    1  UNL1        0.0203
     31 C          62.3237   80.7863   14.6148 C.ar    1  UNL1        0.0985
     32 N          63.0788   82.0370   14.2752 N.ar    1  UNL1       -0.2471
     33 C          63.5011   82.2971   12.8596 C.ar    1  UNL1        0.0695
@<TRIPOS>BOND
     1    22    23    1
     2    23    21    1
     3     1    21    1
     4     1     2    1
     5     2     3    1
     6     3     4   ar
     7     4     5   ar
     8     5     6   ar
     9     6     7   ar
    10     7     8   ar
    11     8    12    1
    12    12    13    1
    13    13    14    1
    14    14    15    1
    15    15    18    1
    16    18    19    1
    17    19    20    1
    18    15    16    1
    19    16    17    1
    20     4     9    1
    21     9    10    1
    22    24    23    1
    23    24    25    1
    24    25    26    1
    25    26    27    1
    26    27    28    1
    27    28    29   ar
    28    29    30   ar
    29    30    31   ar
    30    31    32   ar
    31    32    33   ar
    32    10     1    1
    33    33    24    1
    34     8     3   ar
    35    17    12    1
    36    33    28   ar
    37    20    18    1
    38    10    11    1
@<TRIPOS>MOLECULE
*****
 33 38 0 0 0
SMALL
GASTEIGER

@<TRIPOS>ATOM
      1 C          61.5140   87.1762    9.8931 C.3     1  UNL1        0.0749
      2 C          62.1270   86.4513   11.0544 C.3     1  UNL1        0.0444
      3 C          62.8872   85.1783   10.8272 C.ar    1  UNL1       -0.0101
      4 C          63.0343   84.6303    9.4386 C.ar    1  UNL1       -0.0091
      5 C          63.7946   83.3573    9.2114 C.ar    1  UNL1       -0.0032
      6 C          64.4076   82.6324   10.3727 C.ar    1  UNL1        0.0010
      7 C          64.2604   83.1804   11.7613 C.ar    1  UNL1        0.0142
      8 C          63.5003   84.4534   11.9885 C.ar    1  UNL1        0.0436
      9 C          62.4213   85.3552    8.2773 C.3     1  UNL1        0.0954
     10 N          61.6611   86.6282    8.5046 N.3     1  UNL1       -0.2934
     11 H          60.7182   86.4759    8.1466 H       1  UNL1        0.1236
     12 N          63.3531   85.0014   13.3770 N.pl3   1  UNL1       -0.3049
     13 C          64.2078   86.1500   13.8245 C.3     1  UNL1        0.1081
     14 C          64.0607   86.6981   15.2130 C.3     1  UNL1        0.0938
     15 N          63.0588   86.0975   16.1541 N.3     1  UNL1       -0.2711
     16 C          62.2041   84.9489   15.7066 C.3     1  UNL1        0.0938
     17 C          62.3513   84.4009   14.3181 C.3     1  UNL1        0.1081
     18 C          62.9116   86.6455   17.5426 C.3     1  UNL1        0.0577
     19 C          62.7888   87.8179   18.4701 C.3     1  UNL1        0.0173
     20 C          62.7796   86.4223   19.0200 C.3     1  UNL1        0.0173
     21 C          60.7537   88.4492   10.1203 C.3     1  UNL1        0.0886
     22 C          60.1281   89.2646   12.5065 C.3     1  UNL1        0.0899
     23 N          61.0496   89.2950   11.3232 N.3     1  UNL1       -0.2667
     24 C          62.2669   90.1712   11.3430 C.3     1  UNL1        0.0978
     25 C          62.7246   90.8476   10.0849 C.3     1  UNL1        0.0224
     26 C          63.9420   91.7238   10.1046 C.3     1  UNL1        0.0065
     27 C          64.7016   91.9236   11.3825 C.3     1  UNL1        0.0277
     28 C          64.2439   91.2471   12.6407 C.ar    1  UNL1       -0.0073
     29 C          65.0035   91.4469   13.9186 C.ar    1  UNL1       -0.0015
     30 C          64.5458   90.7705   15.1767 C.ar    1  UNL1        0.0203
     31 C          63.3285   89.8943   15.1569 C.ar    1  UNL1        0.0985
     32 N          62.5689   89.6945   13.8791 N.ar    1  UNL1       -0.2471
     33 C          63.0266   90.3709   12.6210 C.ar    1  UNL1        0.0695
@<TRIPOS>BOND
     1    22    23    1
     2    23    21    1
     3     1    21    1
     4     1     2    1
     5     2     3    1
     6     3     4   ar
     7     4     5   ar
     8     5     6   ar
     9     6     7   ar
    10     7     8   ar
    11     8    12    1
    12    12    13    1
    13    13    14    1
    14    14    15    1
    15    15    18    1
    16    18    19    1
    17    19    20    1
    18    15    16    1
    19    16    17    1
    20     4     9    1
    21     9    10    1
    22    24    23    1
    23    24    25    1
    24    25    26    1
    25    26    27    1
    26    27    28    1
    27    28    29   ar
    28    29    30   ar
    29    30    31   ar
    30    31    32   ar
    31    32    33   ar
    32    10     1    1
    33    33    24    1
    34     8     3   ar
    35    17    12    1
    36    33    28   ar
    37    20    18    1
    38    10    11    1
@<TRIPOS>MOLECULE
*****
 33 38 0 0 0
SMALL
GASTEIGER

@<TRIPOS>ATOM
      1 C          64.0175   87.3547   14.4365 C.3     1  UNL1        0.0749
      2 C          63.3969   86.7814   13.1971 C.3     1  UNL1        0.0444
      3 C          63.5426   85.3200   12.8925 C.ar    1  UNL1       -0.0101
      4 C          64.3088   84.4317   13.8274 C.ar    1  UNL1       -0.0091
      5 C          64.4545   82.9702   13.5227 C.ar    1  UNL1       -0.0032
      6 C          63.8339   82.3969   12.2833 C.ar    1  UNL1        0.0010
      7 C          63.0677   83.2851   11.3484 C.ar    1  UNL1        0.0142
      8 C          62.9220   84.7466   11.6530 C.ar    1  UNL1        0.0436
      9 C          64.9294   85.0050   15.0668 C.3     1  UNL1        0.0954
     10 N          64.7837   86.4665   15.3714 N.3     1  UNL1       -0.2934
     11 H          65.7269   86.8495   15.4346 H       1  UNL1        0.1236
     12 N          62.1557   85.6348   10.7182 N.pl3   1  UNL1       -0.3049
     13 C          62.4226   85.5791    9.2431 C.3     1  UNL1        0.1081
     14 C          61.6564   86.4674    8.3083 C.3     1  UNL1        0.0938
     15 N          60.6232   87.4113    8.8485 N.3     1  UNL1       -0.2711
     16 C          60.3564   87.4669   10.3235 C.3     1  UNL1        0.0938
     17 C          61.1227   86.5787   11.2583 C.3     1  UNL1        0.1081
     18 C          59.8570   88.2995    7.9137 C.3     1  UNL1        0.0577
     19 C          58.6629   88.5426    7.0390 C.3     1  UNL1        0.0173
     20 C          59.7239   89.5948    7.1691 C.3     1  UNL1        0.0173
     21 C          63.8718   88.8162   14.7412 C.3     1  UNL1        0.0886
     22 C          63.4397   89.6357   12.3138 C.3     1  UNL1        0.0899
     23 N          64.0775   89.8324   13.6572 N.3     1  UNL1       -0.2667
     24 C          64.9209   91.0454   13.9165 C.3     1  UNL1        0.0978
     25 C          65.4848   91.2882   15.2851 C.3     1  UNL1        0.0224
     26 C          66.3282   92.5012   15.5444 C.3     1  UNL1        0.0065
     27 C          66.6079   93.4714   14.4352 C.3     1  UNL1        0.0277
     28 C          66.0440   93.2286   13.0665 C.ar    1  UNL1       -0.0073
     29 C          66.3237   94.1988   11.9572 C.ar    1  UNL1       -0.0015
     30 C          65.7598   93.9560   10.5886 C.ar    1  UNL1        0.0203
     31 C          64.9164   92.7430   10.3293 C.ar    1  UNL1        0.0985
     32 N          64.6367   91.7728   11.4386 N.ar    1  UNL1       -0.2471
     33 C          65.2006   92.0156   12.8072 C.ar    1  UNL1        0.0695
@<TRIPOS>BOND
     1    22    23    1
     2    23    21    1
     3     1    21    1
     4     1     2    1
     5     2     3    1
     6     3     4   ar
     7     4     5   ar
     8     5     6   ar
     9     6     7   ar
    10     7     8   ar
    11     8    12    1
    12    12    13    1
    13    13    14    1
    14    14    15    1
    15    15    18    1
    16    18    19    1
    17    19    20    1
    18    15    16    1
    19    16    17    1
    20     4     9    1
    21     9    10    1
    22    24    23    1
    23    24    25    1
    24    25    26    1
    25    26    27    1
    26    27    28    1
    27    28    29   ar
    28    29    30   ar
    29    30    31   ar
    30    31    32   ar
    31    32    33   ar
    32    10     1    1
    33    33    24    1
    34     8     3   ar
    35    17    12    1
    36    33    28   ar
    37    20    18    1
    38    10    11    1
@<TRIPOS>MOLECULE
*****
 33 38 0 0 0
SMALL
GASTEIGER

@<TRIPOS>ATOM
      1 C          61.5024   89.7270   11.8528 C.3     1  UNL1        0.0749
      2 C          61.6253   88.3392   11.2973 C.3     1  UNL1        0.0444
      3 C          61.0042   88.0034    9.9738 C.ar    1  UNL1       -0.0101
      4 C          60.2602   89.0555    9.2060 C.ar    1  UNL1       -0.0091
      5 C          59.6391   88.7197    7.8825 C.ar    1  UNL1       -0.0032
      6 C          59.7620   87.3318    7.3269 C.ar    1  UNL1        0.0010
      7 C          60.5060   86.2797    8.0948 C.ar    1  UNL1        0.0142
      8 C          61.1271   86.6155    9.4182 C.ar    1  UNL1        0.0436
      9 C          60.1373   90.4434    9.7615 C.3     1  UNL1        0.0954
     10 N          60.7584   90.7791   11.0850 N.3     1  UNL1       -0.2934
     11 H          60.0048   91.1070   11.6891 H       1  UNL1        0.1236
     12 N          61.8710   85.5634   10.1861 N.pl3   1  UNL1       -0.3049
     13 C          62.8411   84.6639    9.4789 C.3     1  UNL1        0.1081
     14 C          63.5850   83.6118   10.2467 C.3     1  UNL1        0.0938
     15 N          63.3590   83.4592   11.7218 N.3     1  UNL1       -0.2711
     16 C          62.3890   84.3586   12.4289 C.3     1  UNL1        0.0938
     17 C          61.6450   85.4107   11.6610 C.3     1  UNL1        0.1081
     18 C          64.1029   82.4071   12.4896 C.3     1  UNL1        0.0577
     19 C          64.1800   81.4516   13.6433 C.3     1  UNL1        0.0173
     20 C          65.3144   81.5404   12.6659 C.3     1  UNL1        0.0173
     21 C          62.1234   90.0628   13.1763 C.3     1  UNL1        0.0886
     22 C          64.2830   88.8897   14.0191 C.3     1  UNL1        0.0899
     23 N          63.6153   90.0435   13.3312 N.3     1  UNL1       -0.2667
     24 C          64.4394   91.1778   12.7982 C.3     1  UNL1        0.0978
     25 C          64.3520   91.5518   11.3483 C.3     1  UNL1        0.0224
     26 C          65.1761   92.6862   10.8153 C.3     1  UNL1        0.0065
     27 C          66.0878   93.4464   11.7323 C.3     1  UNL1        0.0277
     28 C          66.1753   93.0724   13.1823 C.ar    1  UNL1       -0.0073
     29 C          67.0869   93.8326   14.0993 C.ar    1  UNL1       -0.0015
     30 C          67.1744   93.4586   15.5492 C.ar    1  UNL1        0.0203
     31 C          66.3502   92.3242   16.0822 C.ar    1  UNL1        0.0985
     32 N          65.4386   91.5640   15.1652 N.ar    1  UNL1       -0.2471
     33 C          65.3511   91.9381   13.7153 C.ar    1  UNL1        0.0695
@<TRIPOS>BOND
     1    22    23    1
     2    23    21    1
     3     1    21    1
     4     1     2    1
     5     2     3    1
     6     3     4   ar
     7     4     5   ar
     8     5     6   ar
     9     6     7   ar
    10     7     8   ar
    11     8    12    1
    12    12    13    1
    13    13    14    1
    14    14    15    1
    15    15    18    1
    16    18    19    1
    17    19    20    1
    18    15    16    1
    19    16    17    1
    20     4     9    1
    21     9    10    1
    22    24    23    1
    23    24    25    1
    24    25    26    1
    25    26    27    1
    26    27    28    1
    27    28    29   ar
    28    29    30   ar
    29    30    31   ar
    30    31    32   ar
    31    32    33   ar
    32    10     1    1
    33    33    24    1
    34     8     3   ar
    35    17    12    1
    36    33    28   ar
    37    20    18    1
    38    10    11    1
@<TRIPOS>MOLECULE
*****
 33 38 0 0 0
SMALL
GASTEIGER

@<TRIPOS>ATOM
      1 C          61.6913   89.7589   12.1959 C.3     1  UNL1        0.0749
      2 C          61.7762   88.3912   11.5859 C.3     1  UNL1        0.0444
      3 C          61.1854   88.1365   10.2309 C.ar    1  UNL1       -0.0101
      4 C          60.5097   89.2494    9.4860 C.ar    1  UNL1       -0.0091
      5 C          59.9189   88.9946    8.1309 C.ar    1  UNL1       -0.0032
      6 C          60.0038   87.6269    7.5208 C.ar    1  UNL1        0.0010
      7 C          60.6795   86.5140    8.2657 C.ar    1  UNL1        0.0142
      8 C          61.2702   86.7687    9.6207 C.ar    1  UNL1        0.0436
      9 C          60.4248   90.6171   10.0961 C.3     1  UNL1        0.0954
     10 N          61.0156   90.8718   11.4511 N.3     1  UNL1       -0.2934
     11 H          60.2567   91.2055   12.0452 H       1  UNL1        0.1236
     12 N          61.9459   85.6558   10.3656 N.pl3   1  UNL1       -0.3049
     13 C          62.8459   84.7030    9.6360 C.3     1  UNL1        0.1081
     14 C          63.5215   83.5901   10.3809 C.3     1  UNL1        0.0938
     15 N          63.2973   83.4300   11.8554 N.3     1  UNL1       -0.2711
     16 C          62.3974   84.3828   12.5849 C.3     1  UNL1        0.0938
     17 C          61.7217   85.4957   11.8400 C.3     1  UNL1        0.1081
     18 C          63.9729   82.3170   12.6003 C.3     1  UNL1        0.0577
     19 C          63.9097   81.1855   13.5829 C.3     1  UNL1        0.0173
     20 C          65.2065   81.5210   12.9078 C.3     1  UNL1        0.0173
     21 C          62.2821   90.0136   13.5510 C.3     1  UNL1        0.0886
     22 C          64.2953   88.3920   13.8105 C.3     1  UNL1        0.0899
     23 N          63.7463   89.7877   13.7853 N.3     1  UNL1       -0.2667
     24 C          64.6617   90.9575   13.9945 C.3     1  UNL1        0.0978
     25 C          65.2369   91.2262   15.3535 C.3     1  UNL1        0.0224
     26 C          66.1522   92.3960   15.5627 C.3     1  UNL1        0.0065
     27 C          66.4923   93.2971   14.4128 C.3     1  UNL1        0.0277
     28 C          65.9171   93.0285   13.0537 C.ar    1  UNL1       -0.0073
     29 C          66.2572   93.9297   11.9039 C.ar    1  UNL1       -0.0015
     30 C          65.6820   93.6611   10.5449 C.ar    1  UNL1        0.0203
     31 C          64.7667   92.4913   10.3357 C.ar    1  UNL1        0.0985
     32 N          64.4266   91.5901   11.4856 N.ar    1  UNL1       -0.2471
     33 C          65.0018   91.8587   12.8446 C.ar    1  UNL1        0.0695
@<TRIPOS>BOND
     1    22    23    1
     2    23    21    1
     3     1    21    1
     4     1     2    1
     5     2     3    1
     6     3     4   ar
     7     4     5   ar
     8     5     6   ar
     9     6     7   ar
    10     7     8   ar
    11     8    12    1
    12    12    13    1
    13    13    14    1
    14    14    15    1
    15    15    18    1
    16    18    19    1
    17    19    20    1
    18    15    16    1
    19    16    17    1
    20     4     9    1
    21     9    10    1
    22    24    23    1
    23    24    25    1
    24    25    26    1
    25    26    27    1
    26    27    28    1
    27    28    29   ar
    28    29    30   ar
    29    30    31   ar
    30    31    32   ar
    31    32    33   ar
    32    10     1    1
    33    33    24    1
    34     8     3   ar
    35    17    12    1
    36    33    28   ar
    37    20    18    1
    38    10    11    1
