@<TRIPOS>MOLECULE
*****
 33 37 0 0 0
SMALL
GASTEIGER

@<TRIPOS>ATOM
      1 N          64.0238   89.4300   13.6018 N.ar    1  UNL1       -0.2172
      2 C          63.1434   89.4871   12.3887 C.ar    1  UNL1        0.0586
      3 C          62.7194   88.0870   12.0574 C.ar    1  UNL1        0.0088
      4 C          63.3377   87.1645   13.0657 C.ar    1  UNL1        0.0161
      5 C          63.2708   85.6760   13.2380 C.ar    1  UNL1        0.0058
      6 C          64.0100   85.0174   14.3648 C.ar    1  UNL1        0.0537
      7 C          64.8162   85.8475   15.3193 C.ar    1  UNL1        0.0061
      8 C          64.8832   87.3360   15.1470 C.ar    1  UNL1        0.0191
      9 C          64.1439   87.9945   14.0202 C.ar    1  UNL1        0.0815
     10 C          61.8250   87.8330   10.8803 C.3     1  UNL1        0.1003
     11 N          61.3547   88.9791   10.0346 N.3     1  UNL1       -0.2697
     12 C          61.7787   90.3792   10.3659 C.3     1  UNL1        0.0786
     13 C          62.6731   90.6332   11.5429 C.3     1  UNL1        0.0627
     14 C          63.9431   83.5288   14.5372 C.2     1  UNL1        0.2490
     15 O          64.1719   82.9192   15.8884 O.2     1  UNL1       -0.2699
     16 N          63.6474   82.6499   13.3582 N.am    1  UNL1       -0.2761
     17 C          63.4186   83.2595   12.0068 C.3     1  UNL1        0.0937
     18 C          63.1229   82.3806   10.8279 C.3     1  UNL1        0.0216
     19 C          63.0560   80.8920   11.0002 C.3     1  UNL1        0.0034
     20 C          62.7603   80.0130    9.8212 C.3     1  UNL1        0.0001
     21 C          63.2848   80.2824   12.3515 C.3     1  UNL1        0.0216
     22 C          63.5805   81.1613   13.5305 C.3     1  UNL1        0.0937
     23 C          60.4602   88.7250    8.8574 C.3     1  UNL1        0.0628
     24 C          60.1458   89.8367    7.9007 C.3     1  UNL1        0.0481
     25 C          59.2514   89.5826    6.7236 C.3     1  UNL1        0.1435
     26 O          58.6714   88.2169    6.5033 O.3     1  UNL1       -0.3537
     27 C          58.9859   87.1052    7.4601 C.3     1  UNL1        0.1435
     28 C          59.8803   87.3593    8.6371 C.3     1  UNL1        0.0481
     29 S          64.6707   90.6024   14.2778 S.O2    1  UNL1        0.0660
     30 O          63.7808   90.4063   15.4693 O.2     1  UNL1       -0.1521
     31 O          65.5605   90.7985   13.0864 O.2     1  UNL1       -0.1521
     32 C          66.8125   91.8923   14.9842 C.3     1  UNL1        0.0294
     33 C          65.3174   91.7749   14.9539 C.3     1  UNL1        0.1752
@<TRIPOS>BOND
     1    32    33    1
     2    33    29    1
     3    29    30    2
     4    29    31    2
     5    29     1    1
     6     1     2   ar
     7     2     3   ar
     8     3     4   ar
     9     4     5   ar
    10     5     6   ar
    11     6    14    1
    12    14    15    2
    13    14    16   am
    14    16    17    1
    15    17    18    1
    16    18    19    1
    17    19    20    1
    18    19    21    1
    19    21    22    1
    20     6     7   ar
    21     7     8   ar
    22     8     9   ar
    23     3    10    1
    24    10    11    1
    25    11    23    1
    26    23    24    1
    27    24    25    1
    28    25    26    1
    29    26    27    1
    30    27    28    1
    31    11    12    1
    32    12    13    1
    33     9     1   ar
    34    28    23    1
    35    13     2    1
    36     9     4   ar
    37    22    16    1
@<TRIPOS>MOLECULE
*****
 33 37 0 0 0
SMALL
GASTEIGER

@<TRIPOS>ATOM
      1 N          62.1869   86.5182   11.0247 N.ar    1  UNL1       -0.2172
      2 C          61.4279   87.1089    9.8736 C.ar    1  UNL1        0.0586
      3 C          61.6232   88.5958    9.9039 C.ar    1  UNL1        0.0088
      4 C          62.5028   88.9241   11.0737 C.ar    1  UNL1        0.0161
      5 C          63.0316   90.2263   11.5977 C.ar    1  UNL1        0.0058
      6 C          63.9087   90.2446   12.8143 C.ar    1  UNL1        0.0537
      7 C          64.2571   88.9605   13.5070 C.ar    1  UNL1        0.0061
      8 C          63.7284   87.6583   12.9831 C.ar    1  UNL1        0.0191
      9 C          62.8513   87.6401   11.7664 C.ar    1  UNL1        0.0815
     10 C          60.9748   89.4587    8.8624 C.3     1  UNL1        0.1003
     11 N          60.1311   88.8347    7.7905 N.3     1  UNL1       -0.2697
     12 C          59.9358   87.3478    7.7602 C.3     1  UNL1        0.0786
     13 C          60.5843   86.4849    8.8018 C.3     1  UNL1        0.0627
     14 C          64.4375   91.5469   13.3383 C.2     1  UNL1        0.2490
     15 O          64.2356   91.9132   14.7787 O.2     1  UNL1       -0.2699
     16 N          65.1682   92.4828   12.4217 N.am    1  UNL1       -0.2761
     17 C          65.3702   92.1164   10.9812 C.3     1  UNL1        0.0937
     18 C          66.1009   93.0524   10.0646 C.3     1  UNL1        0.0216
     19 C          66.6297   94.3547   10.5886 C.3     1  UNL1        0.0034
     20 C          67.3604   95.2906    9.6721 C.3     1  UNL1        0.0001
     21 C          66.4277   94.7210   12.0291 C.3     1  UNL1        0.0216
     22 C          65.6970   93.7850   12.9456 C.3     1  UNL1        0.0937
     23 C          59.4826   89.6977    6.7489 C.3     1  UNL1        0.0628
     24 C          60.3268   90.5596    5.8575 C.3     1  UNL1        0.0481
     25 C          59.6783   91.4226    4.8159 C.3     1  UNL1        0.1435
     26 O          58.1859   91.4237    4.6658 O.3     1  UNL1       -0.3537
     27 C          57.3418   90.5617    5.5572 C.3     1  UNL1        0.1435
     28 C          57.9902   89.6988    6.5988 C.3     1  UNL1        0.0481
     29 S          62.2675   85.0614   11.3730 S.O2    1  UNL1        0.0660
     30 O          61.6202   85.3421   12.6968 O.2     1  UNL1       -0.1521
     31 O          62.9147   84.7807   10.0494 O.2     1  UNL1       -0.1521
     32 C          63.4503   82.7583   11.1571 C.3     1  UNL1        0.0294
     33 C          62.3480   83.6046   11.7214 C.3     1  UNL1        0.1752
@<TRIPOS>BOND
     1    32    33    1
     2    33    29    1
     3    29    30    2
     4    29    31    2
     5    29     1    1
     6     1     2   ar
     7     2     3   ar
     8     3     4   ar
     9     4     5   ar
    10     5     6   ar
    11     6    14    1
    12    14    15    2
    13    14    16   am
    14    16    17    1
    15    17    18    1
    16    18    19    1
    17    19    20    1
    18    19    21    1
    19    21    22    1
    20     6     7   ar
    21     7     8   ar
    22     8     9   ar
    23     3    10    1
    24    10    11    1
    25    11    23    1
    26    23    24    1
    27    24    25    1
    28    25    26    1
    29    26    27    1
    30    27    28    1
    31    11    12    1
    32    12    13    1
    33     9     1   ar
    34    28    23    1
    35    13     2    1
    36     9     4   ar
    37    22    16    1
@<TRIPOS>MOLECULE
*****
 33 37 0 0 0
SMALL
GASTEIGER

@<TRIPOS>ATOM
      1 N          63.5509   90.3578   13.8380 N.ar    1  UNL1       -0.2172
      2 C          64.4035   91.4025   13.1808 C.ar    1  UNL1        0.0586
      3 C          64.0456   91.4440   11.7248 C.ar    1  UNL1        0.0088
      4 C          62.9719   90.4250   11.4820 C.ar    1  UNL1        0.0161
      5 C          62.2332   90.0217   10.2405 C.ar    1  UNL1        0.0058
      6 C          61.1886   88.9471   10.3050 C.ar    1  UNL1        0.0537
      7 C          60.8829   88.2758   11.6111 C.ar    1  UNL1        0.0061
      8 C          61.6216   88.6792   12.8527 C.ar    1  UNL1        0.0191
      9 C          62.6662   89.7537   12.7881 C.ar    1  UNL1        0.0815
     10 C          64.7437   92.4042   10.8080 C.3     1  UNL1        0.1003
     11 N          65.7997   93.3230   11.3473 N.3     1  UNL1       -0.2697
     12 C          66.1575   93.2815   12.8034 C.3     1  UNL1        0.0786
     13 C          65.4594   92.3212   13.7202 C.3     1  UNL1        0.0627
     14 C          60.4498   88.5437    9.0634 C.2     1  UNL1        0.2490
     15 O          59.2846   89.3587    8.5859 O.2     1  UNL1       -0.2699
     16 N          60.8763   87.3254    8.2994 N.am    1  UNL1       -0.2761
     17 C          62.0415   86.5104    8.7770 C.3     1  UNL1        0.0937
     18 C          62.4680   85.2920    8.0129 C.3     1  UNL1        0.0216
     19 C          61.7291   84.8887    6.7713 C.3     1  UNL1        0.0034
     20 C          62.1556   83.6703    6.0073 C.3     1  UNL1        0.0001
     21 C          60.5639   85.7036    6.2938 C.3     1  UNL1        0.0216
     22 C          60.1375   86.9220    7.0578 C.3     1  UNL1        0.0937
     23 C          66.4978   94.2834   10.4305 C.3     1  UNL1        0.0628
     24 C          67.3021   93.7665    9.2747 C.3     1  UNL1        0.0481
     25 C          68.0003   94.7268    8.3578 C.3     1  UNL1        0.1435
     26 O          67.8940   96.2038    8.5968 O.3     1  UNL1       -0.3537
     27 C          67.0896   96.7206    9.7527 C.3     1  UNL1        0.1435
     28 C          66.3915   95.7604   10.6695 C.3     1  UNL1        0.0481
     29 S          63.5783   89.9831   15.2902 S.O2    1  UNL1        0.0660
     30 O          63.3314   91.4146   15.6643 O.2     1  UNL1       -0.1521
     31 O          63.8251   88.5517   14.9162 O.2     1  UNL1       -0.1521
     32 C          63.0642   88.2814   17.1851 C.3     1  UNL1        0.0294
     33 C          63.6056   89.6084   16.7425 C.3     1  UNL1        0.1752
@<TRIPOS>BOND
     1    32    33    1
     2    33    29    1
     3    29    30    2
     4    29    31    2
     5    29     1    1
     6     1     2   ar
     7     2     3   ar
     8     3     4   ar
     9     4     5   ar
    10     5     6   ar
    11     6    14    1
    12    14    15    2
    13    14    16   am
    14    16    17    1
    15    17    18    1
    16    18    19    1
    17    19    20    1
    18    19    21    1
    19    21    22    1
    20     6     7   ar
    21     7     8   ar
    22     8     9   ar
    23     3    10    1
    24    10    11    1
    25    11    23    1
    26    23    24    1
    27    24    25    1
    28    25    26    1
    29    26    27    1
    30    27    28    1
    31    11    12    1
    32    12    13    1
    33     9     1   ar
    34    28    23    1
    35    13     2    1
    36     9     4   ar
    37    22    16    1
@<TRIPOS>MOLECULE
*****
 33 37 0 0 0
SMALL
GASTEIGER

@<TRIPOS>ATOM
      1 N          61.7283   88.5957   10.5723 N.ar    1  UNL1       -0.2172
      2 C          61.9700   87.1679   10.9632 C.ar    1  UNL1        0.0586
      3 C          62.7304   87.1638   12.2562 C.ar    1  UNL1        0.0088
      4 C          62.9586   88.5890   12.6643 C.ar    1  UNL1        0.0161
      5 C          63.6504   89.1953   13.8492 C.ar    1  UNL1        0.0058
      6 C          63.7228   90.6866   13.9933 C.ar    1  UNL1        0.0537
      7 C          63.1034   91.5716   12.9525 C.ar    1  UNL1        0.0061
      8 C          62.4116   90.9653   11.7677 C.ar    1  UNL1        0.0191
      9 C          62.3393   89.4740   11.6236 C.ar    1  UNL1        0.0815
     10 C          63.1168   85.8627   12.8948 C.3     1  UNL1        0.1003
     11 N          62.7428   84.5658   12.2405 N.3     1  UNL1       -0.2697
     12 C          61.9824   84.5699   10.9476 C.3     1  UNL1        0.0786
     13 C          61.5960   85.8709   10.3089 C.3     1  UNL1        0.0627
     14 C          64.4145   91.2929   15.1781 C.2     1  UNL1        0.2490
     15 O          63.6694   91.4812   16.4663 O.2     1  UNL1       -0.2699
     16 N          65.8514   91.7109   15.0748 N.am    1  UNL1       -0.2761
     17 C          66.5965   91.5226   13.7866 C.3     1  UNL1        0.0937
     18 C          68.0333   91.9406   13.6832 C.3     1  UNL1        0.0216
     19 C          68.7251   92.5470   14.8681 C.3     1  UNL1        0.0034
     20 C          70.1620   92.9650   14.7648 C.3     1  UNL1        0.0001
     21 C          67.9800   92.7353   16.1562 C.3     1  UNL1        0.0216
     22 C          66.5432   92.3172   16.2596 C.3     1  UNL1        0.0937
     23 C          63.1292   83.2646   12.8793 C.3     1  UNL1        0.0628
     24 C          62.7317   81.9677   12.2390 C.3     1  UNL1        0.0481
     25 C          63.1182   80.6666   12.8777 C.3     1  UNL1        0.1435
     26 O          63.9020   80.6625   14.1566 O.3     1  UNL1       -0.3537
     27 C          64.2995   81.9595   14.7968 C.3     1  UNL1        0.1435
     28 C          63.9131   83.2606   14.1582 C.3     1  UNL1        0.0481
     29 S          61.0029   89.0632    9.3454 S.O2    1  UNL1        0.0660
     30 O          62.1465   89.9767    9.0173 O.2     1  UNL1       -0.1521
     31 O          59.8593   88.1497    9.6734 O.2     1  UNL1       -0.1521
     32 C          59.3265   88.6101    7.4128 C.3     1  UNL1        0.0294
     33 C          60.2776   89.5308    8.1184 C.3     1  UNL1        0.1752
@<TRIPOS>BOND
     1    32    33    1
     2    33    29    1
     3    29    30    2
     4    29    31    2
     5    29     1    1
     6     1     2   ar
     7     2     3   ar
     8     3     4   ar
     9     4     5   ar
    10     5     6   ar
    11     6    14    1
    12    14    15    2
    13    14    16   am
    14    16    17    1
    15    17    18    1
    16    18    19    1
    17    19    20    1
    18    19    21    1
    19    21    22    1
    20     6     7   ar
    21     7     8   ar
    22     8     9   ar
    23     3    10    1
    24    10    11    1
    25    11    23    1
    26    23    24    1
    27    24    25    1
    28    25    26    1
    29    26    27    1
    30    27    28    1
    31    11    12    1
    32    12    13    1
    33     9     1   ar
    34    28    23    1
    35    13     2    1
    36     9     4   ar
    37    22    16    1
@<TRIPOS>MOLECULE
*****
 33 37 0 0 0
SMALL
GASTEIGER

@<TRIPOS>ATOM
      1 N          63.7641   87.1575   13.8789 N.ar    1  UNL1       -0.2172
      2 C          62.8610   87.1489   12.6812 C.ar    1  UNL1        0.0586
      3 C          62.8976   88.5152   12.0633 C.ar    1  UNL1        0.0088
      4 C          63.8233   89.3682   12.8790 C.ar    1  UNL1        0.0161
      5 C          64.2478   90.8006   12.7450 C.ar    1  UNL1        0.0058
      6 C          65.2078   91.3939   13.7331 C.ar    1  UNL1        0.0537
      7 C          65.7432   90.5549   14.8553 C.ar    1  UNL1        0.0061
      8 C          65.3188   89.1225   14.9893 C.ar    1  UNL1        0.0191
      9 C          64.3588   88.5291   14.0012 C.ar    1  UNL1        0.0815
     10 C          62.0833   88.8060   10.8376 C.3     1  UNL1        0.1003
     11 N          61.2324   87.7305   10.2299 N.3     1  UNL1       -0.2697
     12 C          61.1958   86.3642   10.8478 C.3     1  UNL1        0.0786
     13 C          62.0101   86.0734   12.0735 C.3     1  UNL1        0.0627
     14 C          65.6323   92.8264   13.5991 C.2     1  UNL1        0.2490
     15 O          65.6839   93.7098   14.8103 O.2     1  UNL1       -0.2699
     16 N          66.0052   93.3754   12.2540 N.am    1  UNL1       -0.2761
     17 C          65.9536   92.4920   11.0428 C.3     1  UNL1        0.0937
     18 C          66.3265   93.0410    9.6976 C.3     1  UNL1        0.0216
     19 C          66.7511   94.4735    9.5636 C.3     1  UNL1        0.0034
     20 C          67.1240   95.0225    8.2184 C.3     1  UNL1        0.0001
     21 C          66.8026   95.3568   10.7748 C.3     1  UNL1        0.0216
     22 C          66.4297   94.8078   12.1199 C.3     1  UNL1        0.0937
     23 C          60.4181   88.0214    9.0041 C.3     1  UNL1        0.0628
     24 C          59.6827   86.9124    8.3118 C.3     1  UNL1        0.0481
     25 C          58.8683   87.2033    7.0861 C.3     1  UNL1        0.1435
     26 O          58.7895   88.6031    6.5528 O.3     1  UNL1       -0.3537
     27 C          59.5249   89.7120    7.2452 C.3     1  UNL1        0.1435
     28 C          60.3392   89.4212    8.4709 C.3     1  UNL1        0.0481
     29 S          64.0263   85.9981   14.7938 S.O2    1  UNL1        0.0660
     30 O          64.6738   85.2533   13.6642 O.2     1  UNL1       -0.1521
     31 O          63.3789   86.7429   15.9233 O.2     1  UNL1       -0.1521
     32 C          64.1804   83.4351   15.1906 C.3     1  UNL1        0.0294
     33 C          64.2887   84.8386   15.7086 C.3     1  UNL1        0.1752
@<TRIPOS>BOND
     1    32    33    1
     2    33    29    1
     3    29    30    2
     4    29    31    2
     5    29     1    1
     6     1     2   ar
     7     2     3   ar
     8     3     4   ar
     9     4     5   ar
    10     5     6   ar
    11     6    14    1
    12    14    15    2
    13    14    16   am
    14    16    17    1
    15    17    18    1
    16    18    19    1
    17    19    20    1
    18    19    21    1
    19    21    22    1
    20     6     7   ar
    21     7     8   ar
    22     8     9   ar
    23     3    10    1
    24    10    11    1
    25    11    23    1
    26    23    24    1
    27    24    25    1
    28    25    26    1
    29    26    27    1
    30    27    28    1
    31    11    12    1
    32    12    13    1
    33     9     1   ar
    34    28    23    1
    35    13     2    1
    36     9     4   ar
    37    22    16    1
@<TRIPOS>MOLECULE
*****
 33 37 0 0 0
SMALL
GASTEIGER

@<TRIPOS>ATOM
      1 N          63.6003   89.0302   13.7418 N.ar    1  UNL1       -0.2172
      2 C          62.7612   89.2319   12.5149 C.ar    1  UNL1        0.0586
      3 C          62.5571   87.8940   11.8680 C.ar    1  UNL1        0.0088
      4 C          63.2700   86.8656   12.6951 C.ar    1  UNL1        0.0161
      5 C          63.4154   85.3804   12.5433 C.ar    1  UNL1        0.0058
      6 C          64.2056   84.5975   13.5496 C.ar    1  UNL1        0.0537
      7 C          64.8503   85.2997   14.7077 C.ar    1  UNL1        0.0061
      8 C          64.7049   86.7849   14.8595 C.ar    1  UNL1        0.0191
      9 C          63.9148   87.5678   13.8532 C.ar    1  UNL1        0.0815
     10 C          61.7484   87.7851   10.6094 C.3     1  UNL1        0.1003
     11 N          61.1438   89.0141    9.9977 N.3     1  UNL1       -0.2697
     12 C          61.3479   90.3519   10.6446 C.3     1  UNL1        0.0786
     13 C          62.1566   90.4608   11.9032 C.3     1  UNL1        0.0627
     14 C          64.3510   83.1122   13.3978 C.2     1  UNL1        0.2490
     15 O          65.6740   82.5244   13.0051 O.2     1  UNL1       -0.2699
     16 N          63.1734   82.2148   13.6387 N.am    1  UNL1       -0.2761
     17 C          61.8504   82.8027   14.0314 C.3     1  UNL1        0.0937
     18 C          60.6729   81.9054   14.2723 C.3     1  UNL1        0.0216
     19 C          60.8183   80.4201   14.1206 C.3     1  UNL1        0.0034
     20 C          59.6407   79.5227   14.3615 C.3     1  UNL1        0.0001
     21 C          62.1412   79.8323   13.7279 C.3     1  UNL1        0.0216
     22 C          63.3188   80.7297   13.4870 C.3     1  UNL1        0.0937
     23 C          60.3351   88.9051    8.7390 C.3     1  UNL1        0.0628
     24 C          60.1877   90.0945    7.8370 C.3     1  UNL1        0.0481
     25 C          59.3790   89.9856    6.5784 C.3     1  UNL1        0.1435
     26 O          58.7177   88.6873    6.2218 O.3     1  UNL1       -0.3537
     27 C          58.8651   87.4979    7.1238 C.3     1  UNL1        0.1435
     28 C          59.6738   87.6068    8.3825 C.3     1  UNL1        0.0481
     29 S          64.0466   90.1028   14.6908 S.O2    1  UNL1        0.0660
     30 O          65.2168   90.4026   13.8016 O.2     1  UNL1       -0.1521
     31 O          62.8764   89.8030   15.5800 O.2     1  UNL1       -0.1521
     32 C          65.7393   91.9591   15.3532 C.3     1  UNL1        0.0294
     33 C          64.4929   91.1753   15.6397 C.3     1  UNL1        0.1752
@<TRIPOS>BOND
     1    32    33    1
     2    33    29    1
     3    29    30    2
     4    29    31    2
     5    29     1    1
     6     1     2   ar
     7     2     3   ar
     8     3     4   ar
     9     4     5   ar
    10     5     6   ar
    11     6    14    1
    12    14    15    2
    13    14    16   am
    14    16    17    1
    15    17    18    1
    16    18    19    1
    17    19    20    1
    18    19    21    1
    19    21    22    1
    20     6     7   ar
    21     7     8   ar
    22     8     9   ar
    23     3    10    1
    24    10    11    1
    25    11    23    1
    26    23    24    1
    27    24    25    1
    28    25    26    1
    29    26    27    1
    30    27    28    1
    31    11    12    1
    32    12    13    1
    33     9     1   ar
    34    28    23    1
    35    13     2    1
    36     9     4   ar
    37    22    16    1
@<TRIPOS>MOLECULE
*****
 33 37 0 0 0
SMALL
GASTEIGER

@<TRIPOS>ATOM
      1 N          62.6086   94.8954   -0.2217 N.ar    1  UNL1       -0.2172
      2 C          62.1124   94.0929    0.9443 C.ar    1  UNL1        0.0586
      3 C          60.6287   93.9296    0.7967 C.ar    1  UNL1        0.0088
      4 C          60.2078   94.6312   -0.4605 C.ar    1  UNL1        0.0161
      5 C          58.8685   94.8037   -1.1135 C.ar    1  UNL1        0.0058
      6 C          58.7529   95.5731   -2.3959 C.ar    1  UNL1        0.0537
      7 C          59.9766   96.1701   -3.0253 C.ar    1  UNL1        0.0061
      8 C          61.3159   95.9976   -2.3724 C.ar    1  UNL1        0.0191
      9 C          61.4315   95.2282   -1.0900 C.ar    1  UNL1        0.0815
     10 C          59.8524   93.1631    1.8262 C.3     1  UNL1        0.1003
     11 N          60.5600   92.5598    3.0033 N.3     1  UNL1       -0.2697
     12 C          62.0437   92.7231    3.1509 C.3     1  UNL1        0.0786
     13 C          62.8199   93.4896    2.1214 C.3     1  UNL1        0.0627
     14 C          57.4135   95.7456   -3.0489 C.2     1  UNL1        0.2490
     15 O          56.5036   96.8553   -2.6123 O.2     1  UNL1       -0.2699
     16 N          56.9841   94.8084   -4.1385 N.am    1  UNL1       -0.2761
     17 C          57.8940   93.6986   -4.5750 C.3     1  UNL1        0.0937
     18 C          57.4646   92.7614   -5.6646 C.3     1  UNL1        0.0216
     19 C          56.1252   92.9339   -6.3176 C.3     1  UNL1        0.0034
     20 C          55.6958   91.9966   -7.4072 C.3     1  UNL1        0.0001
     21 C          55.2154   94.0436   -5.8811 C.3     1  UNL1        0.0216
     22 C          55.6448   94.9808   -4.7915 C.3     1  UNL1        0.0937
     23 C          59.7837   91.7933    4.0328 C.3     1  UNL1        0.0628
     24 C          60.4888   90.8265    4.9373 C.3     1  UNL1        0.0481
     25 C          59.7125   90.0599    5.9669 C.3     1  UNL1        0.1435
     26 O          58.2312   90.2602    6.0918 O.3     1  UNL1       -0.3537
     27 C          57.5261   91.2270    5.1873 C.3     1  UNL1        0.1435
     28 C          58.3024   91.9935    4.1578 C.3     1  UNL1        0.0481
     29 S          64.0320   95.2951   -0.4751 S.O2    1  UNL1        0.0660
     30 O          63.8603   96.4798    0.4289 O.2     1  UNL1       -0.1521
     31 O          64.2038   94.1106   -1.3790 O.2     1  UNL1       -0.1521
     32 C          65.7639   96.7954   -1.6999 C.3     1  UNL1        0.0294
     33 C          65.4554   95.6949   -0.7284 C.3     1  UNL1        0.1752
@<TRIPOS>BOND
     1    32    33    1
     2    33    29    1
     3    29    30    2
     4    29    31    2
     5    29     1    1
     6     1     2   ar
     7     2     3   ar
     8     3     4   ar
     9     4     5   ar
    10     5     6   ar
    11     6    14    1
    12    14    15    2
    13    14    16   am
    14    16    17    1
    15    17    18    1
    16    18    19    1
    17    19    20    1
    18    19    21    1
    19    21    22    1
    20     6     7   ar
    21     7     8   ar
    22     8     9   ar
    23     3    10    1
    24    10    11    1
    25    11    23    1
    26    23    24    1
    27    24    25    1
    28    25    26    1
    29    26    27    1
    30    27    28    1
    31    11    12    1
    32    12    13    1
    33     9     1   ar
    34    28    23    1
    35    13     2    1
    36     9     4   ar
    37    22    16    1
@<TRIPOS>MOLECULE
*****
 33 37 0 0 0
SMALL
GASTEIGER

@<TRIPOS>ATOM
      1 N          61.2387   88.1238    9.6328 N.ar    1  UNL1       -0.2172
      2 C          61.5895   86.8492   10.3415 C.ar    1  UNL1        0.0586
      3 C          62.5757   87.1767   11.4232 C.ar    1  UNL1        0.0088
      4 C          62.8344   88.6537   11.3831 C.ar    1  UNL1        0.0161
      5 C          63.7156   89.5412   12.2111 C.ar    1  UNL1        0.0058
      6 C          63.7704   91.0141   11.9326 C.ar    1  UNL1        0.0537
      7 C          62.9441   91.5994   10.8260 C.ar    1  UNL1        0.0061
      8 C          62.0629   90.7119    9.9979 C.ar    1  UNL1        0.0191
      9 C          62.0080   89.2390   10.2765 C.ar    1  UNL1        0.0815
     10 C          63.1108   86.0877   12.3051 C.3     1  UNL1        0.1003
     11 N          62.6596   84.6711   12.1053 N.3     1  UNL1       -0.2697
     12 C          61.6734   84.3436   11.0235 C.3     1  UNL1        0.0786
     13 C          61.1384   85.4326   10.1417 C.3     1  UNL1        0.0627
     14 C          64.6517   91.9017   12.7606 C.2     1  UNL1        0.2490
     15 O          64.8960   91.5792   14.2050 O.2     1  UNL1       -0.2699
     16 N          65.2886   93.1118   12.1442 N.am    1  UNL1       -0.2761
     17 C          65.0443   93.4343   10.6998 C.3     1  UNL1        0.0937
     18 C          65.6812   94.6444   10.0834 C.3     1  UNL1        0.0216
     19 C          66.5625   95.5320   10.9114 C.3     1  UNL1        0.0034
     20 C          67.1994   96.7422   10.2951 C.3     1  UNL1        0.0001
     21 C          66.8067   95.2095   12.3558 C.3     1  UNL1        0.0216
     22 C          66.1698   93.9994   12.9722 C.3     1  UNL1        0.0937
     23 C          63.1948   83.5821   12.9872 C.3     1  UNL1        0.0628
     24 C          63.1790   82.1586   12.5145 C.3     1  UNL1        0.0481
     25 C          63.7141   81.0696   13.3964 C.3     1  UNL1        0.1435
     26 O          64.2649   81.4041   14.7509 O.3     1  UNL1       -0.3537
     27 C          64.2806   82.8276   15.2236 C.3     1  UNL1        0.1435
     28 C          63.7456   83.9166   14.3417 C.3     1  UNL1        0.0481
     29 S          60.2858   88.2593    8.4823 S.O2    1  UNL1        0.0660
     30 O          59.6195   89.4139    9.1702 O.2     1  UNL1       -0.1521
     31 O          60.9519   87.1049    7.7944 O.2     1  UNL1       -0.1521
     32 C          59.4346   89.5726    6.4084 C.3     1  UNL1        0.0294
     33 C          59.3328   88.3950    7.3318 C.3     1  UNL1        0.1752
@<TRIPOS>BOND
     1    32    33    1
     2    33    29    1
     3    29    30    2
     4    29    31    2
     5    29     1    1
     6     1     2   ar
     7     2     3   ar
     8     3     4   ar
     9     4     5   ar
    10     5     6   ar
    11     6    14    1
    12    14    15    2
    13    14    16   am
    14    16    17    1
    15    17    18    1
    16    18    19    1
    17    19    20    1
    18    19    21    1
    19    21    22    1
    20     6     7   ar
    21     7     8   ar
    22     8     9   ar
    23     3    10    1
    24    10    11    1
    25    11    23    1
    26    23    24    1
    27    24    25    1
    28    25    26    1
    29    26    27    1
    30    27    28    1
    31    11    12    1
    32    12    13    1
    33     9     1   ar
    34    28    23    1
    35    13     2    1
    36     9     4   ar
    37    22    16    1
@<TRIPOS>MOLECULE
*****
 33 37 0 0 0
SMALL
GASTEIGER

@<TRIPOS>ATOM
      1 N          64.1565   89.1042   13.4141 N.ar    1  UNL1       -0.2172
      2 C          63.2693   89.2269   12.2108 C.ar    1  UNL1        0.0586
      3 C          62.6995   87.8713   11.9149 C.ar    1  UNL1        0.0088
      4 C          63.2345   86.9107   12.9353 C.ar    1  UNL1        0.0161
      5 C          63.0181   85.4407   13.1405 C.ar    1  UNL1        0.0058
      6 C          63.7021   84.7327   14.2721 C.ar    1  UNL1        0.0537
      7 C          64.6026   85.4947   15.1987 C.ar    1  UNL1        0.0061
      8 C          64.8190   86.9647   14.9936 C.ar    1  UNL1        0.0191
      9 C          64.1350   87.6727   13.8619 C.ar    1  UNL1        0.0815
     10 C          61.7671   87.6866   10.7546 C.3     1  UNL1        0.1003
     11 N          61.4045   88.8576    9.8901 N.3     1  UNL1       -0.2697
     12 C          61.9743   90.2133   10.1860 C.3     1  UNL1        0.0786
     13 C          62.9067   90.3979   11.3464 C.3     1  UNL1        0.0627
     14 C          63.4857   83.2626   14.4773 C.2     1  UNL1        0.2490
     15 O          63.4282   82.6997   15.8665 O.2     1  UNL1       -0.2699
     16 N          63.3267   82.3555   13.2933 N.am    1  UNL1       -0.2761
     17 C          63.3842   82.9185   11.9041 C.3     1  UNL1        0.0937
     18 C          63.2253   82.0114   10.7201 C.3     1  UNL1        0.0216
     19 C          63.0088   80.5413   10.9253 C.3     1  UNL1        0.0034
     20 C          62.8499   79.6342    9.7413 C.3     1  UNL1        0.0001
     21 C          62.9514   79.9783   12.3144 C.3     1  UNL1        0.0216
     22 C          63.1103   80.8855   13.4984 C.3     1  UNL1        0.0937
     23 C          60.4720   88.6730    8.7297 C.3     1  UNL1        0.0628
     24 C          59.9933   87.2993    8.3636 C.3     1  UNL1        0.0481
     25 C          59.0608   87.1147    7.2032 C.3     1  UNL1        0.1435
     26 O          58.6072   88.3035    6.4090 O.3     1  UNL1       -0.3537
     27 C          59.0860   89.6771    6.7751 C.3     1  UNL1        0.1435
     28 C          60.0184   89.8618    7.9355 C.3     1  UNL1        0.0481
     29 S          64.9295   90.2175   14.0568 S.O2    1  UNL1        0.0660
     30 O          65.4926   89.2501   15.0553 O.2     1  UNL1       -0.1521
     31 O          64.3664   91.1849   13.0584 O.2     1  UNL1       -0.1521
     32 C          66.5929   92.2043   13.8664 C.3     1  UNL1        0.0294
     33 C          65.7026   91.3307   14.6996 C.3     1  UNL1        0.1752
@<TRIPOS>BOND
     1    32    33    1
     2    33    29    1
     3    29    30    2
     4    29    31    2
     5    29     1    1
     6     1     2   ar
     7     2     3   ar
     8     3     4   ar
     9     4     5   ar
    10     5     6   ar
    11     6    14    1
    12    14    15    2
    13    14    16   am
    14    16    17    1
    15    17    18    1
    16    18    19    1
    17    19    20    1
    18    19    21    1
    19    21    22    1
    20     6     7   ar
    21     7     8   ar
    22     8     9   ar
    23     3    10    1
    24    10    11    1
    25    11    23    1
    26    23    24    1
    27    24    25    1
    28    25    26    1
    29    26    27    1
    30    27    28    1
    31    11    12    1
    32    12    13    1
    33     9     1   ar
    34    28    23    1
    35    13     2    1
    36     9     4   ar
    37    22    16    1
