@<TRIPOS>MOLECULE
*****
 36 39 0 0 0
SMALL
GASTEIGER

@<TRIPOS>ATOM
      1 C          60.2939   86.8456    7.9822 C.3     1  UNL1        0.0795
      2 C          59.5148   87.5869    6.9366 C.3     1  UNL1        0.0178
      3 C          59.2575   89.0562    7.0942 C.3     1  UNL1        0.0029
      4 C          59.7792   89.7842    8.2974 C.3     1  UNL1        0.0178
      5 C          60.5583   89.0429    9.3430 C.3     1  UNL1        0.0798
      6 N          60.8156   87.5735    9.1854 N.3     1  UNL1       -0.1583
      7 C          61.0801   89.7708   10.5463 C.3     1  UNL1        0.0224
      8 C          61.1050   90.4340   11.8915 C.3     1  UNL1        0.0018
      9 C          59.8302   89.8370   11.3730 C.3     1  UNL1        0.0018
     10 C          62.5112   89.9574   10.1375 C.3     1  UNL1        0.0706
     11 C          63.4497   90.7244   11.0211 C.ar    1  UNL1        0.1805
     12 N          63.7586   90.4172   12.4565 N.ar    1  UNL1       -0.0606
     13 O          64.7439   91.4362   12.9471 O.2     1  UNL1       -0.3359
     14 C          65.0441   92.3733   11.8148 C.ar    1  UNL1        0.2527
     15 N          64.2442   91.9333   10.6245 N.ar    1  UNL1       -0.1937
     16 C          65.9798   93.5446   11.8643 C.3     1  UNL1        0.1615
     17 N          66.8970   93.8211   10.7101 N.3     1  UNL1       -0.2638
     18 C          67.7306   92.7156   10.1330 C.3     1  UNL1        0.0900
     19 C          66.9807   95.2031   10.1330 C.3     1  UNL1        0.0729
     20 C          66.2378   95.7434   11.3189 C.3     1  UNL1        0.0186
     21 C          67.7235   94.6629    8.9471 C.3     1  UNL1        0.0186
     22 C          67.0643   96.5852    9.5559 C.3     1  UNL1        0.1516
     23 O          67.9483   96.8522    8.3740 O.3     1  UNL1       -0.3806
     24 H          68.8757   96.7264    8.6289 H       1  UNL1        0.2105
     25 S          61.5948   86.8322   10.2311 S.O2    1  UNL1        0.0632
     26 O          62.7998   86.8388    9.3379 O.2     1  UNL1       -0.1528
     27 O          60.7121   86.6649   11.2388 O.2     1  UNL1       -0.1528
     28 C          62.3739   86.0908   11.2767 C.ar    1  UNL1        0.1222
     29 C          62.5417   84.6038   11.1734 C.ar    1  UNL1        0.0208
     30 C          63.3208   83.8624   12.2190 C.ar    1  UNL1        0.0128
     31 C          63.9322   84.6081   13.3680 C.ar    1  UNL1        0.0578
     32 CL         64.7114   83.8668   14.4136 Cl      1  UNL1       -0.0822
     33 C          63.7645   86.0951   13.4713 C.ar    1  UNL1        0.0128
     34 C          62.9854   86.8365   12.4257 C.ar    1  UNL1        0.0208
     35 C          61.4958   84.8896    6.7659 C.3     1  UNL1        0.0015
     36 C          60.5512   85.3762    7.8246 C.3     1  UNL1        0.0177
@<TRIPOS>BOND
     1    35    36    1
     2     1    36    1
     3     1     2    1
     4     2     3    1
     5     3     4    1
     6     4     5    1
     7     5     7    1
     8     7    10    1
     9    10    11    1
    10    11    12   ar
    11    12    13   ar
    12    13    14   ar
    13    14    16    1
    14    16    17    1
    15    17    18    1
    16    17    19    1
    17    19    20    1
    18    19    21    1
    19    19    22    1
    20    22    23    1
    21    14    15   ar
    22     7     8    1
    23     8     9    1
    24     5     6    1
    25     6    25    1
    26    25    26    2
    27    25    27    2
    28    25    28    1
    29    28    29   ar
    30    29    30   ar
    31    30    31   ar
    32    31    32    1
    33    31    33   ar
    34    33    34   ar
    35     6     1    1
    36    34    28   ar
    37     9     7    1
    38    15    11   ar
    39    23    24    1
@<TRIPOS>MOLECULE
*****
 36 39 0 0 0
SMALL
GASTEIGER

@<TRIPOS>ATOM
      1 C          65.5265   91.8475   12.7392 C.3     1  UNL1        0.0795
      2 C          65.8324   92.7821   11.6067 C.3     1  UNL1        0.0178
      3 C          64.9356   92.8232   10.4050 C.3     1  UNL1        0.0029
      4 C          63.7328   91.9296   10.3359 C.3     1  UNL1        0.0178
      5 C          63.4269   90.9949   11.4685 C.3     1  UNL1        0.0798
      6 N          64.3237   90.9539   12.6701 N.3     1  UNL1       -0.1583
      7 C          62.2241   90.1013   11.3994 C.3     1  UNL1        0.0224
      8 C          60.8426   89.5750   11.6535 C.3     1  UNL1        0.0018
      9 C          61.2918   90.8488   12.3061 C.3     1  UNL1        0.0018
     10 C          62.7388   89.0435   10.4688 C.3     1  UNL1        0.0706
     11 C          62.4617   87.5966   10.7514 C.ar    1  UNL1        0.1805
     12 N          61.8108   86.6238    9.8132 N.ar    1  UNL1       -0.0606
     13 O          61.7337   85.2945   10.5037 O.2     1  UNL1       -0.3359
     14 C          62.3371   85.4456   11.8687 C.ar    1  UNL1        0.2527
     15 N          62.7870   86.8684   12.0218 N.ar    1  UNL1       -0.1937
     16 C          62.4675   84.3639   12.8997 C.3     1  UNL1        0.1615
     17 N          63.0973   83.0523   12.5351 N.3     1  UNL1       -0.2638
     18 C          64.2864   83.0196   11.6212 C.3     1  UNL1        0.0900
     19 C          62.5381   81.7733   13.0842 C.3     1  UNL1        0.0729
     20 C          62.8469   81.0823   11.7892 C.3     1  UNL1        0.0186
     21 C          62.2293   82.4644   14.3792 C.3     1  UNL1        0.0186
     22 C          61.9789   80.4944   13.6333 C.3     1  UNL1        0.1516
     23 O          60.5781   80.4567   14.1679 O.3     1  UNL1       -0.3806
     24 H          60.5194   81.0129   14.9605 H       1  UNL1        0.2105
     25 S          64.0178   90.0191   13.8028 S.O2    1  UNL1        0.0632
     26 O          63.4253   91.1563   14.5811 O.2     1  UNL1       -0.1528
     27 O          64.4685   88.8226   13.3697 O.2     1  UNL1       -0.1528
     28 C          63.7118   89.0845   14.9353 C.ar    1  UNL1        0.1222
     29 C          63.0350   89.5997   16.1710 C.ar    1  UNL1        0.0208
     30 C          62.7290   88.6650   17.3035 C.ar    1  UNL1        0.0128
     31 C          63.0998   87.2152   17.2006 C.ar    1  UNL1        0.0578
     32 CL         62.7938   86.2806   18.3332 Cl      1  UNL1       -0.0822
     33 C          63.7765   86.7000   15.9650 C.ar    1  UNL1        0.0128
     34 C          64.0825   87.6347   14.8324 C.ar    1  UNL1        0.0208
     35 C          67.9097   91.9148   13.7715 C.3     1  UNL1        0.0015
     36 C          66.4233   91.8064   13.9409 C.3     1  UNL1        0.0177
@<TRIPOS>BOND
     1    35    36    1
     2     1    36    1
     3     1     2    1
     4     2     3    1
     5     3     4    1
     6     4     5    1
     7     5     7    1
     8     7    10    1
     9    10    11    1
    10    11    12   ar
    11    12    13   ar
    12    13    14   ar
    13    14    16    1
    14    16    17    1
    15    17    18    1
    16    17    19    1
    17    19    20    1
    18    19    21    1
    19    19    22    1
    20    22    23    1
    21    14    15   ar
    22     7     8    1
    23     8     9    1
    24     5     6    1
    25     6    25    1
    26    25    26    2
    27    25    27    2
    28    25    28    1
    29    28    29   ar
    30    29    30   ar
    31    30    31   ar
    32    31    32    1
    33    31    33   ar
    34    33    34   ar
    35     6     1    1
    36    34    28   ar
    37     9     7    1
    38    15    11   ar
    39    23    24    1
@<TRIPOS>MOLECULE
*****
 36 39 0 0 0
SMALL
GASTEIGER

@<TRIPOS>ATOM
      1 C          60.4436   86.5866    7.8400 C.3     1  UNL1        0.0795
      2 C          59.6741   87.4037    6.8449 C.3     1  UNL1        0.0178
      3 C          59.3656   88.8428    7.1346 C.3     1  UNL1        0.0029
      4 C          59.8266   89.4647    8.4193 C.3     1  UNL1        0.0178
      5 C          60.5961   88.6477    9.4143 C.3     1  UNL1        0.0798
      6 N          60.9046   87.2086    9.1247 N.3     1  UNL1       -0.1583
      7 C          61.0571   89.2697   10.6992 C.3     1  UNL1        0.0224
      8 C          61.0035   89.8898   12.0639 C.3     1  UNL1        0.0018
      9 C          59.7350   89.4805   11.3756 C.3     1  UNL1        0.0018
     10 C          62.5393   89.2748   10.4688 C.3     1  UNL1        0.0706
     11 C          63.3380   90.5126   10.7519 C.ar    1  UNL1        0.1805
     12 N          63.5296   91.6710    9.8183 N.ar    1  UNL1       -0.0606
     13 O          64.3953   92.6835   10.5076 O.2     1  UNL1       -0.3359
     14 C          64.7387   92.1510   11.8672 C.ar    1  UNL1        0.2527
     15 N          64.0853   90.8092   12.0182 N.ar    1  UNL1       -0.1937
     16 C          65.5868   92.8394   12.8954 C.3     1  UNL1        0.1615
     17 N          66.0892   92.0773   14.0855 N.3     1  UNL1       -0.2638
     18 C          65.1827   91.1192   14.7999 C.3     1  UNL1        0.0900
     19 C          67.4983   92.2731   14.5613 C.3     1  UNL1        0.0729
     20 C          68.0126   91.7018   13.2732 C.3     1  UNL1        0.0186
     21 C          66.9839   92.8444   15.8493 C.3     1  UNL1        0.0186
     22 C          68.9073   92.4689   15.0370 C.3     1  UNL1        0.1516
     23 O          70.0520   92.2930   14.0838 O.3     1  UNL1       -0.3806
     24 H          70.1019   91.3649   13.8063 H       1  UNL1        0.2105
     25 S          61.6742   86.3915   10.1198 S.O2    1  UNL1        0.0632
     26 O          62.8667   86.4067    9.2101 O.2     1  UNL1       -0.1528
     27 O          60.8004   86.2004   11.1310 O.2     1  UNL1       -0.1528
     28 C          62.4437   85.5745   11.1149 C.ar    1  UNL1        0.1222
     29 C          62.7402   84.1316   10.8315 C.ar    1  UNL1        0.0208
     30 C          63.5097   83.3146   11.8266 C.ar    1  UNL1        0.0128
     31 C          63.9829   83.9403   13.1051 C.ar    1  UNL1        0.0578
     32 CL         64.7524   83.1233   14.1001 Cl      1  UNL1       -0.0822
     33 C          63.6864   85.3832   13.3885 C.ar    1  UNL1        0.0128
     34 C          62.9169   86.2003   12.3934 C.ar    1  UNL1        0.0208
     35 C          61.6243   84.7875    6.3843 C.3     1  UNL1        0.0015
     36 C          60.7522   85.1475    7.5503 C.3     1  UNL1        0.0177
@<TRIPOS>BOND
     1    35    36    1
     2     1    36    1
     3     1     2    1
     4     2     3    1
     5     3     4    1
     6     4     5    1
     7     5     7    1
     8     7    10    1
     9    10    11    1
    10    11    12   ar
    11    12    13   ar
    12    13    14   ar
    13    14    16    1
    14    16    17    1
    15    17    18    1
    16    17    19    1
    17    19    20    1
    18    19    21    1
    19    19    22    1
    20    22    23    1
    21    14    15   ar
    22     7     8    1
    23     8     9    1
    24     5     6    1
    25     6    25    1
    26    25    26    2
    27    25    27    2
    28    25    28    1
    29    28    29   ar
    30    29    30   ar
    31    30    31   ar
    32    31    32    1
    33    31    33   ar
    34    33    34   ar
    35     6     1    1
    36    34    28   ar
    37     9     7    1
    38    15    11   ar
    39    23    24    1
@<TRIPOS>MOLECULE
*****
 36 39 0 0 0
SMALL
GASTEIGER

@<TRIPOS>ATOM
      1 C          65.4202   92.4031   12.4971 C.3     1  UNL1        0.0795
      2 C          66.4628   93.1704   13.2549 C.3     1  UNL1        0.0178
      3 C          66.7006   92.8792   14.7070 C.3     1  UNL1        0.0029
      4 C          65.8960   91.8208   15.4013 C.3     1  UNL1        0.0178
      5 C          64.8534   91.0534   14.6435 C.3     1  UNL1        0.0798
      6 N          64.6156   91.3446   13.1914 N.3     1  UNL1       -0.1583
      7 C          64.0487   89.9949   15.3378 C.3     1  UNL1        0.0224
      8 C          63.0586   89.3613   16.2696 C.3     1  UNL1        0.0018
      9 C          63.2352   90.8509   16.2628 C.3     1  UNL1        0.0018
     10 C          64.5828   88.7714   14.6540 C.3     1  UNL1        0.0706
     11 C          64.1859   87.4082   15.1380 C.ar    1  UNL1        0.1805
     12 N          63.4077   87.1071   16.3846 N.ar    1  UNL1       -0.0606
     13 O          63.2383   85.6197   16.4774 O.2     1  UNL1       -0.3359
     14 C          63.9118   85.0013   15.2882 C.ar    1  UNL1        0.2527
     15 N          64.4974   86.1067   14.4604 N.ar    1  UNL1       -0.1937
     16 C          63.9865   83.5350   14.9808 C.3     1  UNL1        0.1615
     17 N          63.1491   82.9560   13.8794 N.3     1  UNL1       -0.2638
     18 C          61.9300   82.1469   14.2101 C.3     1  UNL1        0.0900
     19 C          63.5306   83.1861   12.4470 C.3     1  UNL1        0.0729
     20 C          64.5992   82.1398   12.5636 C.3     1  UNL1        0.0186
     21 C          62.4621   84.2323   12.3305 C.3     1  UNL1        0.0186
     22 C          63.9122   83.4161   11.0147 C.3     1  UNL1        0.1516
     23 O          64.7150   82.3856   10.2776 O.3     1  UNL1       -0.3806
     24 H          65.5986   82.3209   10.6726 H       1  UNL1        0.2105
     25 S          63.5730   90.5772   12.4336 S.O2    1  UNL1        0.0632
     26 O          62.5699   91.6543   12.7230 O.2     1  UNL1       -0.1528
     27 O          64.2219   89.4696   12.0159 O.2     1  UNL1       -0.1528
     28 C          62.5304   89.8099   11.6759 C.ar    1  UNL1        0.1222
     29 C          61.4056   90.5381   11.0014 C.ar    1  UNL1        0.0208
     30 C          60.3631   89.7708   10.2436 C.ar    1  UNL1        0.0128
     31 C          60.4452   88.2753   10.1603 C.ar    1  UNL1        0.0578
     32 CL         59.4026   87.5080    9.4025 Cl      1  UNL1       -0.0822
     33 C          61.5698   87.5472   10.8347 C.ar    1  UNL1        0.0128
     34 C          62.6125   88.3145   11.5925 C.ar    1  UNL1        0.0208
     35 C          66.2429   93.3773   10.2335 C.3     1  UNL1        0.0015
     36 C          65.1824   92.6942   11.0450 C.3     1  UNL1        0.0177
@<TRIPOS>BOND
     1    35    36    1
     2     1    36    1
     3     1     2    1
     4     2     3    1
     5     3     4    1
     6     4     5    1
     7     5     7    1
     8     7    10    1
     9    10    11    1
    10    11    12   ar
    11    12    13   ar
    12    13    14   ar
    13    14    16    1
    14    16    17    1
    15    17    18    1
    16    17    19    1
    17    19    20    1
    18    19    21    1
    19    19    22    1
    20    22    23    1
    21    14    15   ar
    22     7     8    1
    23     8     9    1
    24     5     6    1
    25     6    25    1
    26    25    26    2
    27    25    27    2
    28    25    28    1
    29    28    29   ar
    30    29    30   ar
    31    30    31   ar
    32    31    32    1
    33    31    33   ar
    34    33    34   ar
    35     6     1    1
    36    34    28   ar
    37     9     7    1
    38    15    11   ar
    39    23    24    1
@<TRIPOS>MOLECULE
*****
 36 39 0 0 0
SMALL
GASTEIGER

@<TRIPOS>ATOM
      1 C          63.4767   84.5301    9.7312 C.3     1  UNL1        0.0795
      2 C          64.2676   83.2611    9.6126 C.3     1  UNL1        0.0178
      3 C          64.6666   82.5079   10.8469 C.3     1  UNL1        0.0029
      4 C          64.2747   83.0236   12.1998 C.3     1  UNL1        0.0178
      5 C          63.4838   84.2926   12.3184 C.3     1  UNL1        0.0798
      6 N          63.0848   85.0458   11.0841 N.3     1  UNL1       -0.1583
      7 C          63.0918   84.8084   13.6713 C.3     1  UNL1        0.0224
      8 C          62.3095   84.9901   14.9382 C.3     1  UNL1        0.0018
      9 C          61.8316   84.0256   13.8935 C.3     1  UNL1        0.0018
     10 C          64.2158   85.7702   13.9189 C.3     1  UNL1        0.0706
     11 C          63.9708   87.0234   14.7062 C.ar    1  UNL1        0.1805
     12 N          63.4630   87.0939   16.1159 N.ar    1  UNL1       -0.0606
     13 O          63.3690   88.5400   16.5030 O.2     1  UNL1       -0.3359
     14 C          63.8187   89.3633   15.3325 C.ar    1  UNL1        0.2527
     15 N          64.1907   88.4259   14.2220 N.ar    1  UNL1       -0.1937
     16 C          63.8848   90.8610   15.2814 C.3     1  UNL1        0.1615
     17 N          64.8946   91.5376   14.4027 N.3     1  UNL1       -0.2638
     18 C          64.6380   91.6719   12.9309 C.3     1  UNL1        0.0900
     19 C          66.1612   92.0801   14.9957 C.3     1  UNL1        0.0729
     20 C          65.4223   92.4310   16.2531 C.3     1  UNL1        0.0186
     21 C          66.9001   91.7292   13.7384 C.3     1  UNL1        0.0186
     22 C          67.4277   92.6226   15.5888 C.3     1  UNL1        0.1516
     23 O          68.6247   92.8565   14.7157 O.3     1  UNL1       -0.3806
     24 H          68.9526   92.0067   14.3822 H       1  UNL1        0.2105
     25 S          62.2938   86.3149   11.2028 S.O2    1  UNL1        0.0632
     26 O          61.0344   85.5580   10.9016 O.2     1  UNL1       -0.1528
     27 O          63.2215   87.2521   11.4916 O.2     1  UNL1       -0.1528
     28 C          61.5029   87.5838   11.3214 C.ar    1  UNL1        0.1222
     29 C          60.0068   87.5474   11.2193 C.ar    1  UNL1        0.0208
     30 C          59.2158   88.8163   11.3379 C.ar    1  UNL1        0.0128
     31 C          59.9209   90.1217   11.5587 C.ar    1  UNL1        0.0578
     32 CL         59.1299   91.3907   11.6773 Cl      1  UNL1       -0.0822
     33 C          61.4169   90.1582   11.6608 C.ar    1  UNL1        0.0128
     34 C          62.2080   88.8892   11.5422 C.ar    1  UNL1        0.0208
     35 C          62.7357   84.5378    7.2411 C.3     1  UNL1        0.0015
     36 C          63.0778   85.2833    8.4969 C.3     1  UNL1        0.0177
@<TRIPOS>BOND
     1    35    36    1
     2     1    36    1
     3     1     2    1
     4     2     3    1
     5     3     4    1
     6     4     5    1
     7     5     7    1
     8     7    10    1
     9    10    11    1
    10    11    12   ar
    11    12    13   ar
    12    13    14   ar
    13    14    16    1
    14    16    17    1
    15    17    18    1
    16    17    19    1
    17    19    20    1
    18    19    21    1
    19    19    22    1
    20    22    23    1
    21    14    15   ar
    22     7     8    1
    23     8     9    1
    24     5     6    1
    25     6    25    1
    26    25    26    2
    27    25    27    2
    28    25    28    1
    29    28    29   ar
    30    29    30   ar
    31    30    31   ar
    32    31    32    1
    33    31    33   ar
    34    33    34   ar
    35     6     1    1
    36    34    28   ar
    37     9     7    1
    38    15    11   ar
    39    23    24    1
@<TRIPOS>MOLECULE
*****
 36 39 0 0 0
SMALL
GASTEIGER

@<TRIPOS>ATOM
      1 C          65.4456   92.7522   12.5673 C.3     1  UNL1        0.0795
      2 C          66.5242   93.4662   13.3267 C.3     1  UNL1        0.0178
      3 C          66.8774   93.0290   14.7174 C.3     1  UNL1        0.0029
      4 C          66.1520   91.8779   15.3487 C.3     1  UNL1        0.0178
      5 C          65.0734   91.1639   14.5893 C.3     1  UNL1        0.0798
      6 N          64.7202   91.6011   13.1986 N.3     1  UNL1       -0.1583
      7 C          64.3478   90.0127   15.2206 C.3     1  UNL1        0.0224
      8 C          63.3420   89.2587   16.0390 C.3     1  UNL1        0.0018
      9 C          63.2885   90.7566   15.9787 C.3     1  UNL1        0.0018
     10 C          65.1552   88.8691   14.6818 C.3     1  UNL1        0.0706
     11 C          64.4725   87.6009   14.2627 C.ar    1  UNL1        0.1805
     12 N          63.4697   87.4637   13.1556 N.ar    1  UNL1       -0.0606
     13 O          63.0502   86.0253   13.0858 O.2     1  UNL1       -0.3359
     14 C          63.7937   85.2735   14.1499 C.ar    1  UNL1        0.2527
     15 N          64.6727   86.2473   14.8772 N.ar    1  UNL1       -0.1937
     16 C          63.6783   83.8055   14.4362 C.3     1  UNL1        0.1615
     17 N          63.4605   82.8369   13.3119 N.3     1  UNL1       -0.2638
     18 C          64.2059   83.0061   12.0212 C.3     1  UNL1        0.0900
     19 C          62.4974   81.6990   13.4781 C.3     1  UNL1        0.0729
     20 C          61.9804   82.3212   14.7414 C.3     1  UNL1        0.0186
     21 C          63.0144   81.0770   12.2150 C.3     1  UNL1        0.0186
     22 C          61.5342   80.5612   13.6445 C.3     1  UNL1        0.1516
     23 O          60.2112   80.7901   14.3130 O.3     1  UNL1       -0.3806
     24 H          60.3550   81.0184   15.2447 H       1  UNL1        0.2105
     25 S          63.6415   90.8871   12.4392 S.O2    1  UNL1        0.0632
     26 O          62.6024   91.5379   13.3032 O.2     1  UNL1       -0.1528
     27 O          64.3140   90.1632   11.5193 O.2     1  UNL1       -0.1528
     28 C          62.5628   90.1731   11.6798 C.ar    1  UNL1        0.1222
     29 C          62.8581   89.5846   10.3320 C.ar    1  UNL1        0.0208
     30 C          61.7795   88.8706    9.5727 C.ar    1  UNL1        0.0128
     31 C          60.4054   88.7451   10.1610 C.ar    1  UNL1        0.0578
     32 CL         59.3267   88.0312    9.4017 Cl      1  UNL1       -0.0822
     33 C          60.1100   89.3336   11.5087 C.ar    1  UNL1        0.0128
     34 C          61.1887   90.0476   12.2682 C.ar    1  UNL1        0.0208
     35 C          65.6391   94.4762   10.6333 C.3     1  UNL1        0.0015
     36 C          65.0924   93.1894   11.1765 C.3     1  UNL1        0.0177
@<TRIPOS>BOND
     1    35    36    1
     2     1    36    1
     3     1     2    1
     4     2     3    1
     5     3     4    1
     6     4     5    1
     7     5     7    1
     8     7    10    1
     9    10    11    1
    10    11    12   ar
    11    12    13   ar
    12    13    14   ar
    13    14    16    1
    14    16    17    1
    15    17    18    1
    16    17    19    1
    17    19    20    1
    18    19    21    1
    19    19    22    1
    20    22    23    1
    21    14    15   ar
    22     7     8    1
    23     8     9    1
    24     5     6    1
    25     6    25    1
    26    25    26    2
    27    25    27    2
    28    25    28    1
    29    28    29   ar
    30    29    30   ar
    31    30    31   ar
    32    31    32    1
    33    31    33   ar
    34    33    34   ar
    35     6     1    1
    36    34    28   ar
    37     9     7    1
    38    15    11   ar
    39    23    24    1
@<TRIPOS>MOLECULE
*****
 36 39 0 0 0
SMALL
GASTEIGER

@<TRIPOS>ATOM
      1 C          63.0290   85.5544   12.4605 C.3     1  UNL1        0.0795
      2 C          63.8678   85.1192   13.6254 C.3     1  UNL1        0.0178
      3 C          64.4930   86.1446   14.5241 C.3     1  UNL1        0.0029
      4 C          64.2794   87.6052   14.2579 C.3     1  UNL1        0.0178
      5 C          63.4407   88.0405   13.0930 C.3     1  UNL1        0.0798
      6 N          62.8155   87.0151   12.1943 N.3     1  UNL1       -0.1583
      7 C          63.2271   89.5012   12.8268 C.3     1  UNL1        0.0224
      8 C          63.1757   90.8070   12.0904 C.3     1  UNL1        0.0018
      9 C          63.6200   89.5625   11.3804 C.3     1  UNL1        0.0018
     10 C          62.7601   89.9470   14.1807 C.3     1  UNL1        0.0706
     11 C          63.6255   90.8449   15.0144 C.ar    1  UNL1        0.1805
     12 N          63.3456   91.2805   16.4223 N.ar    1  UNL1       -0.0606
     13 O          64.4697   92.1695   16.8646 O.2     1  UNL1       -0.3359
     14 C          65.4445   92.2834   15.7302 C.ar    1  UNL1        0.2527
     15 N          64.9227   91.4647   14.5867 N.ar    1  UNL1       -0.1937
     16 C          66.7176   93.0768   15.7379 C.3     1  UNL1        0.1615
     17 N          67.7034   92.9238   14.6180 N.3     1  UNL1       -0.2638
     18 C          69.1613   92.7428   14.9215 C.3     1  UNL1        0.0900
     19 C          67.2316   92.9516   13.1944 C.3     1  UNL1        0.0729
     20 C          66.5159   94.2435   13.4568 C.3     1  UNL1        0.0186
     21 C          67.9473   91.6598   12.9319 C.3     1  UNL1        0.0186
     22 C          66.7598   92.9796   11.7708 C.3     1  UNL1        0.1516
     23 O          67.2272   94.0647   10.8469 O.3     1  UNL1       -0.3806
     24 H          66.8806   94.9186   11.1495 H       1  UNL1        0.2105
     25 S          61.9767   87.4504   11.0294 S.O2    1  UNL1        0.0632
     26 O          60.8142   87.6749   11.9503 O.2     1  UNL1       -0.1528
     27 O          62.8093   87.3491    9.9715 O.2     1  UNL1       -0.1528
     28 C          61.1379   87.8857    9.8645 C.ar    1  UNL1        0.1222
     29 C          60.4849   86.8603    8.9858 C.ar    1  UNL1        0.0208
     30 C          59.6461   87.2956    7.8209 C.ar    1  UNL1        0.0128
     31 C          59.4603   88.7562    7.5347 C.ar    1  UNL1        0.0578
     32 CL         58.6216   89.1915    6.3699 Cl      1  UNL1       -0.0822
     33 C          60.1134   89.7816    8.4134 C.ar    1  UNL1        0.0128
     34 C          60.9522   89.3464    9.5783 C.ar    1  UNL1        0.0208
     35 C          63.2388   83.8223   10.5355 C.3     1  UNL1        0.0015
     36 C          62.4038   84.5290   11.5618 C.3     1  UNL1        0.0177
@<TRIPOS>BOND
     1    35    36    1
     2     1    36    1
     3     1     2    1
     4     2     3    1
     5     3     4    1
     6     4     5    1
     7     5     7    1
     8     7    10    1
     9    10    11    1
    10    11    12   ar
    11    12    13   ar
    12    13    14   ar
    13    14    16    1
    14    16    17    1
    15    17    18    1
    16    17    19    1
    17    19    20    1
    18    19    21    1
    19    19    22    1
    20    22    23    1
    21    14    15   ar
    22     7     8    1
    23     8     9    1
    24     5     6    1
    25     6    25    1
    26    25    26    2
    27    25    27    2
    28    25    28    1
    29    28    29   ar
    30    29    30   ar
    31    30    31   ar
    32    31    32    1
    33    31    33   ar
    34    33    34   ar
    35     6     1    1
    36    34    28   ar
    37     9     7    1
    38    15    11   ar
    39    23    24    1
@<TRIPOS>MOLECULE
*****
 36 39 0 0 0
SMALL
GASTEIGER

@<TRIPOS>ATOM
      1 C          64.0037   86.8740   14.3042 C.3     1  UNL1        0.0795
      2 C          64.2366   88.3557   14.3011 C.3     1  UNL1        0.0178
      3 C          63.7772   89.1848   13.1386 C.3     1  UNL1        0.0029
      4 C          63.0848   88.5321   11.9790 C.3     1  UNL1        0.0178
      5 C          62.8518   87.0503   11.9821 C.3     1  UNL1        0.0798
      6 N          63.3113   86.2213   13.1447 N.3     1  UNL1       -0.1583
      7 C          62.1594   86.3976   10.8225 C.3     1  UNL1        0.0224
      8 C          61.9348   85.5185    9.6280 C.3     1  UNL1        0.0018
      9 C          63.2663   85.5193   10.3190 C.3     1  UNL1        0.0018
     10 C          60.8121   87.0492   10.9234 C.3     1  UNL1        0.0706
     11 C          60.3680   88.0204    9.8700 C.ar    1  UNL1        0.1805
     12 N          60.2181   89.5027   10.0443 N.ar    1  UNL1       -0.0606
     13 O          59.7533   90.0782    8.7395 O.2     1  UNL1       -0.3359
     14 C          59.6159   88.9516    7.7587 C.ar    1  UNL1        0.2527
     15 N          59.9958   87.6798    8.4574 N.ar    1  UNL1       -0.1937
     16 C          59.1759   89.0752    6.3300 C.3     1  UNL1        0.1615
     17 N          59.3438   90.3766    5.6034 N.3     1  UNL1       -0.2638
     18 C          60.7183   90.8860    5.2851 C.3     1  UNL1        0.0900
     19 C          58.1372   91.1687    5.1949 C.3     1  UNL1        0.0729
     20 C          57.2508   90.1731    5.8828 C.3     1  UNL1        0.0186
     21 C          59.0236   92.1642    4.5071 C.3     1  UNL1        0.0186
     22 C          56.9306   91.9607    4.7866 C.3     1  UNL1        0.1516
     23 O          55.5572   91.3926    4.9878 O.3     1  UNL1       -0.3806
     24 H          55.4419   90.6160    4.4182 H       1  UNL1        0.2105
     25 S          63.0783   84.7394   13.1477 S.O2    1  UNL1        0.0632
     26 O          61.6992   84.9574   13.6959 O.2     1  UNL1       -0.1528
     27 O          64.2319   84.2264   12.6696 O.2     1  UNL1       -0.1528
     28 C          62.8452   83.2577   13.1507 C.ar    1  UNL1        0.1222
     29 C          62.2082   82.6010   14.3394 C.ar    1  UNL1        0.0208
     30 C          61.9752   81.1193   14.3425 C.ar    1  UNL1        0.0128
     31 C          62.3791   80.2941   13.1568 C.ar    1  UNL1        0.0578
     32 CL         62.1461   78.8123   13.1598 Cl      1  UNL1       -0.0822
     33 C          63.0162   80.9507   11.9681 C.ar    1  UNL1        0.0128
     34 C          63.2492   82.4325   11.9650 C.ar    1  UNL1        0.0208
     35 C          63.5756   85.8750   16.6640 C.3     1  UNL1        0.0015
     36 C          64.4631   86.0449   15.4667 C.3     1  UNL1        0.0177
@<TRIPOS>BOND
     1    35    36    1
     2     1    36    1
     3     1     2    1
     4     2     3    1
     5     3     4    1
     6     4     5    1
     7     5     7    1
     8     7    10    1
     9    10    11    1
    10    11    12   ar
    11    12    13   ar
    12    13    14   ar
    13    14    16    1
    14    16    17    1
    15    17    18    1
    16    17    19    1
    17    19    20    1
    18    19    21    1
    19    19    22    1
    20    22    23    1
    21    14    15   ar
    22     7     8    1
    23     8     9    1
    24     5     6    1
    25     6    25    1
    26    25    26    2
    27    25    27    2
    28    25    28    1
    29    28    29   ar
    30    29    30   ar
    31    30    31   ar
    32    31    32    1
    33    31    33   ar
    34    33    34   ar
    35     6     1    1
    36    34    28   ar
    37     9     7    1
    38    15    11   ar
    39    23    24    1
@<TRIPOS>MOLECULE
*****
 36 39 0 0 0
SMALL
GASTEIGER

@<TRIPOS>ATOM
      1 C          62.1340   86.9870   11.0998 C.3     1  UNL1        0.0795
      2 C          62.2334   88.4608   10.8393 C.3     1  UNL1        0.0178
      3 C          62.9869   89.3416   11.7914 C.3     1  UNL1        0.0029
      4 C          63.6410   88.7486   13.0040 C.3     1  UNL1        0.0178
      5 C          63.5416   87.2747   13.2645 C.3     1  UNL1        0.0798
      6 N          62.7881   86.3940   12.3124 N.3     1  UNL1       -0.1583
      7 C          64.1957   86.6816   14.4771 C.3     1  UNL1        0.0224
      8 C          65.1334   85.8638   15.3150 C.3     1  UNL1        0.0018
      9 C          65.2395   85.8286   13.8191 C.3     1  UNL1        0.0018
     10 C          63.3791   87.3287   15.5562 C.3     1  UNL1        0.0706
     11 C          63.5406   88.7921   15.8433 C.ar    1  UNL1        0.1805
     12 N          62.6073   89.6393   16.6565 N.ar    1  UNL1       -0.0606
     13 O          63.1535   91.0360   16.6835 O.2     1  UNL1       -0.3359
     14 C          64.4245   91.0521   15.8869 C.ar    1  UNL1        0.2527
     15 N          64.6637   89.6652   15.3677 N.ar    1  UNL1       -0.1937
     16 C          65.3021   92.2455   15.6510 C.3     1  UNL1        0.1615
     17 N          66.1702   92.3083   14.4295 N.3     1  UNL1       -0.2638
     18 C          65.5478   92.2827   13.0648 C.3     1  UNL1        0.0900
     19 C          67.6608   92.3969   14.5724 C.3     1  UNL1        0.0729
     20 C          67.4987   92.8161   16.0035 C.3     1  UNL1        0.0186
     21 C          67.8228   91.9777   13.1413 C.3     1  UNL1        0.0186
     22 C          69.1513   92.4854   14.7153 C.3     1  UNL1        0.1516
     23 O          70.0404   92.0355   13.5943 O.3     1  UNL1       -0.3806
     24 H          69.9458   91.0781   13.4709 H       1  UNL1        0.2105
     25 S          62.6887   84.9200   12.5730 S.O2    1  UNL1        0.0632
     26 O          63.5257   84.6489   11.3581 O.2     1  UNL1       -0.1528
     27 O          61.9362   84.8359   13.6906 O.2     1  UNL1       -0.1528
     28 C          62.5894   83.4462   12.8335 C.ar    1  UNL1        0.1222
     29 C          62.1173   82.9506   14.1683 C.ar    1  UNL1        0.0208
     30 C          62.0180   81.4768   14.4288 C.ar    1  UNL1        0.0128
     31 C          62.3907   80.4985   13.3545 C.ar    1  UNL1        0.0578
     32 CL         62.2914   79.0247   13.6150 Cl      1  UNL1       -0.0822
     33 C          62.8628   80.9940   12.0198 C.ar    1  UNL1        0.0128
     34 C          62.9621   82.4679   11.7592 C.ar    1  UNL1        0.0208
     35 C          61.8036   86.0197    8.7113 C.3     1  UNL1        0.0015
     36 C          61.3805   86.1062   10.1478 C.3     1  UNL1        0.0177
@<TRIPOS>BOND
     1    35    36    1
     2     1    36    1
     3     1     2    1
     4     2     3    1
     5     3     4    1
     6     4     5    1
     7     5     7    1
     8     7    10    1
     9    10    11    1
    10    11    12   ar
    11    12    13   ar
    12    13    14   ar
    13    14    16    1
    14    16    17    1
    15    17    18    1
    16    17    19    1
    17    19    20    1
    18    19    21    1
    19    19    22    1
    20    22    23    1
    21    14    15   ar
    22     7     8    1
    23     8     9    1
    24     5     6    1
    25     6    25    1
    26    25    26    2
    27    25    27    2
    28    25    28    1
    29    28    29   ar
    30    29    30   ar
    31    30    31   ar
    32    31    32    1
    33    31    33   ar
    34    33    34   ar
    35     6     1    1
    36    34    28   ar
    37     9     7    1
    38    15    11   ar
    39    23    24    1
