@<TRIPOS>MOLECULE
*****
 39 44 0 0 0
SMALL
GASTEIGER

@<TRIPOS>ATOM
      1 N          64.1633   92.3555   11.0758 N.3     1  UNL1       -0.2676
      2 C          64.7166   92.3753   12.4699 C.3     1  UNL1        0.0746
      3 C          64.6817   91.1321   13.3083 C.3     1  UNL1        0.0449
      4 C          64.0935   89.8690   12.7528 C.3     1  UNL1        0.1391
      5 C          63.5403   89.8491   11.3587 C.3     1  UNL1        0.0449
      6 C          63.5752   91.0924   10.5202 C.3     1  UNL1        0.0746
      7 C          63.5399   88.5390   12.3350 C.2     1  UNL1        0.2529
      8 O          62.9239   88.2187   11.0053 O.2     1  UNL1       -0.2724
      9 N          63.7104   87.5854   13.4803 N.am    1  UNL1       -0.1907
     10 C          64.3694   88.3262   14.6060 C.2     1  UNL1        0.3219
     11 O          64.7285   87.7558   15.9459 O.2     1  UNL1       -0.2512
     12 N          64.6062   89.7374   14.1564 N.am    1  UNL1       -0.2222
     13 C          65.2437   90.8261   14.9677 C.ar    1  UNL1        0.1453
     14 C          66.7044   91.1255   14.8049 C.ar    1  UNL1        0.0922
     15 C          67.3419   92.2142   15.6163 C.ar    1  UNL1        0.2259
     16 O          68.8026   92.5136   15.4535 O.3     1  UNL1       -0.4919
     17 N          66.5186   93.0035   16.5906 N.ar    1  UNL1       -0.1894
     18 C          65.0579   92.7041   16.7535 C.ar    1  UNL1        0.2027
     19 N          64.4204   91.6154   15.9420 N.ar    1  UNL1       -0.2084
     20 H          69.3169   92.0206   14.8449 H       1  UNL1        0.2938
     21 C          63.2948   86.1442   13.4971 C.ar    1  UNL1        0.0623
     22 C          63.3165   85.3723   14.7829 C.ar    1  UNL1        0.0169
     23 C          62.9009   83.9312   14.7997 C.ar    1  UNL1        0.0204
     24 C          62.4637   83.2619   13.5305 C.ar    1  UNL1        0.0829
     25 C          62.4420   84.0338   12.2446 C.ar    1  UNL1        0.0204
     26 C          62.8575   85.4750   12.2278 C.ar    1  UNL1        0.0169
     27 N          62.0481   81.8207   13.5473 N.ar    1  UNL1       -0.2281
     28 C          62.7706   80.6869   12.8819 C.ar    1  UNL1        0.1020
     29 C          62.0061   79.4258   13.1557 C.ar    1  UNL1        0.0431
     30 C          60.8111   79.7800   13.9903 C.ar    1  UNL1        0.1221
     31 N          60.8371   81.2602   14.2323 N.ar    1  UNL1       -0.1635
     32 C          64.1982   93.5988   10.2372 C.3     1  UNL1        0.1183
     33 C          64.4582   96.5728    9.9416 C.3     1  UNL1        0.0323
     34 C          65.6442   95.6882    9.6955 C.ar    1  UNL1       -0.0069
     35 C          66.9603   96.2905    9.3017 C.ar    1  UNL1       -0.0015
     36 C          68.1464   95.4058    9.0556 C.ar    1  UNL1        0.0203
     37 C          68.0164   93.9188    9.2034 C.ar    1  UNL1        0.0985
     38 N          66.7003   93.3164    9.5973 N.ar    1  UNL1       -0.2471
     39 C          65.5142   94.2011    9.8434 C.ar    1  UNL1        0.0712
@<TRIPOS>BOND
     1    33    34    1
     2    34    35   ar
     3    35    36   ar
     4    36    37   ar
     5    37    38   ar
     6    38    39   ar
     7    39    32    1
     8    32     1    1
     9     1     2    1
    10     2     3    1
    11     3     4    1
    12     4     5    1
    13     5     6    1
    14     4     7    1
    15     7     8    2
    16     7     9   am
    17     9    21    1
    18    21    22   ar
    19    22    23   ar
    20    23    24   ar
    21    24    27    1
    22    27    28   ar
    23    28    29   ar
    24    29    30   ar
    25    30    31   ar
    26    24    25   ar
    27    25    26   ar
    28     9    10   am
    29    10    11    2
    30    10    12   am
    31    12    13    1
    32    13    14   ar
    33    14    15   ar
    34    15    16    1
    35    15    17   ar
    36    17    18   ar
    37    18    19   ar
    38    39    34   ar
    39     6     1    1
    40    26    21   ar
    41    19    13   ar
    42    12     4    1
    43    31    27   ar
    44    16    20    1
@<TRIPOS>MOLECULE
*****
 39 44 0 0 0
SMALL
GASTEIGER

@<TRIPOS>ATOM
      1 N          64.1822   89.4710   14.3298 N.3     1  UNL1       -0.2676
      2 C          63.1744   89.7414   13.2523 C.3     1  UNL1        0.0746
      3 C          62.6439   88.6112   12.4210 C.3     1  UNL1        0.0449
      4 C          63.1211   87.2106   12.6672 C.3     1  UNL1        0.1391
      5 C          64.1289   86.9402   13.7447 C.3     1  UNL1        0.0449
      6 C          64.6595   88.0704   14.5761 C.3     1  UNL1        0.0746
      7 C          63.5030   85.7658   12.7969 C.2     1  UNL1        0.2529
      8 O          64.4824   85.1976   13.7807 O.2     1  UNL1       -0.2724
      9 N          62.7334   84.9890   11.7700 N.am    1  UNL1       -0.1907
     10 C          61.8759   85.9537   11.0057 C.2     1  UNL1        0.3219
     11 O          60.9428   85.6065    9.8839 O.2     1  UNL1       -0.2512
     12 N          62.1156   87.3267   11.5601 N.am    1  UNL1       -0.2222
     13 C          61.4641   88.5935   11.0902 C.ar    1  UNL1        0.1453
     14 C          60.1996   89.0722   11.7396 C.ar    1  UNL1        0.0922
     15 C          59.5482   90.3390   11.2696 C.ar    1  UNL1        0.2259
     16 O          58.2837   90.8178   11.9190 O.3     1  UNL1       -0.4919
     17 N          60.1613   91.1271   10.1501 N.ar    1  UNL1       -0.1894
     18 C          61.4258   90.6484    9.5007 C.ar    1  UNL1        0.2027
     19 N          62.0772   89.3816    9.9707 N.ar    1  UNL1       -0.2084
     20 H          57.9007   90.3255   12.6182 H       1  UNL1        0.2938
     21 C          62.8081   83.5076   11.5466 C.ar    1  UNL1        0.0623
     22 C          62.2609   82.5652   12.5773 C.ar    1  UNL1        0.0169
     23 C          62.3357   81.0838   12.3540 C.ar    1  UNL1        0.0204
     24 C          62.9576   80.5448   11.1000 C.ar    1  UNL1        0.0829
     25 C          63.5049   81.4873   10.0693 C.ar    1  UNL1        0.0204
     26 C          63.4301   82.9687   10.2926 C.ar    1  UNL1        0.0169
     27 N          63.0324   79.0635   10.8767 N.ar    1  UNL1       -0.2281
     28 C          63.4694   78.3832    9.6132 C.ar    1  UNL1        0.1020
     29 C          63.3903   76.9015    9.8332 C.ar    1  UNL1        0.0431
     30 C          62.9045   76.6660   11.2327 C.ar    1  UNL1        0.1221
     31 N          62.6833   78.0022   11.8775 N.ar    1  UNL1       -0.1635
     32 C          64.7128   90.6012   15.1612 C.3     1  UNL1        0.1183
     33 C          66.5778   92.3666   16.7121 C.3     1  UNL1        0.0323
     34 C          66.2823   92.6686   15.2728 C.ar    1  UNL1       -0.0069
     35 C          66.9194   93.8533   14.6090 C.ar    1  UNL1       -0.0015
     36 C          66.6239   94.1553   13.1697 C.ar    1  UNL1        0.0203
     37 C          65.6914   93.2727   12.3943 C.ar    1  UNL1        0.0985
     38 N          65.0543   92.0879   13.0581 N.ar    1  UNL1       -0.2471
     39 C          65.3498   91.7859   14.4974 C.ar    1  UNL1        0.0712
@<TRIPOS>BOND
     1    33    34    1
     2    34    35   ar
     3    35    36   ar
     4    36    37   ar
     5    37    38   ar
     6    38    39   ar
     7    39    32    1
     8    32     1    1
     9     1     2    1
    10     2     3    1
    11     3     4    1
    12     4     5    1
    13     5     6    1
    14     4     7    1
    15     7     8    2
    16     7     9   am
    17     9    21    1
    18    21    22   ar
    19    22    23   ar
    20    23    24   ar
    21    24    27    1
    22    27    28   ar
    23    28    29   ar
    24    29    30   ar
    25    30    31   ar
    26    24    25   ar
    27    25    26   ar
    28     9    10   am
    29    10    11    2
    30    10    12   am
    31    12    13    1
    32    13    14   ar
    33    14    15   ar
    34    15    16    1
    35    15    17   ar
    36    17    18   ar
    37    18    19   ar
    38    39    34   ar
    39     6     1    1
    40    26    21   ar
    41    19    13   ar
    42    12     4    1
    43    31    27   ar
    44    16    20    1
