@<TRIPOS>MOLECULE
*****
 33 36 0 0 0
SMALL
GASTEIGER

@<TRIPOS>ATOM
      1 C          62.4215   89.3626   11.8228 C.2     1  UNL1        0.2506
      2 O          61.0191   89.4683   12.3447 O.2     1  UNL1       -0.2698
      3 N          62.6793   88.7275   10.4886 N.am    1  UNL1       -0.2645
      4 H          63.5997   88.6582   10.1461 H       1  UNL1        0.1566
      5 C          65.8549   90.9508   14.2600 C.ar    1  UNL1        0.0366
      6 C          65.0664   89.7737   14.7529 C.ar    1  UNL1        0.0009
      7 C          63.9220   89.2443   13.9405 C.ar    1  UNL1        0.0044
      8 C          63.5659   89.8920   12.6352 C.ar    1  UNL1        0.0537
      9 C          64.3544   91.0691   12.1423 C.ar    1  UNL1        0.0042
     10 C          63.9983   91.7168   10.8371 C.ar    1  UNL1        0.0001
     11 C          64.7867   92.8938   10.3442 C.ar    1  UNL1        0.0000
     12 C          65.9312   93.4232   11.1566 C.ar    1  UNL1       -0.0000
     13 C          66.2872   92.7755   12.4618 C.ar    1  UNL1       -0.0002
     14 C          65.4988   91.5985   12.9547 C.ar    1  UNL1        0.0010
     15 C          66.9993   91.4801   15.0724 C.3     1  UNL1        0.2826
     16 C          67.8412   93.8228   15.8161 C.3     1  UNL1        0.3201
     17 S          66.8243   92.7228   15.8940 S.O     1  UNL1        0.0405
     18 O          65.6323   92.8657   16.7934 O.co2   1  UNL1       -0.6809
     19 C          61.5349   88.1982    9.6762 C.ar    1  UNL1        0.1567
     20 N          60.6274   89.1473    8.9514 N.ar    1  UNL1       -0.2257
     21 C          59.4829   88.6180    8.1390 C.ar    1  UNL1        0.1210
     22 C          59.2460   87.1394    8.0514 C.ar    1  UNL1        0.1197
     23 N          60.1535   86.1901    8.7763 N.ar    1  UNL1       -0.2348
     24 C          61.2980   86.7195    9.5887 C.ar    1  UNL1        0.1660
     25 C          62.2055   85.7704   10.3135 C.2     1  UNL1        0.2664
     26 O          63.1174   84.8655    9.5391 O.2     1  UNL1       -0.2684
     27 N          62.2012   85.7260   11.8128 N.am    1  UNL1       -0.2996
     28 H          61.6027   86.3199   12.3211 H       1  UNL1        0.1498
     29 C          63.1087   84.7768   12.5378 C.3     1  UNL1        0.0897
     30 C          62.7049   83.3436   12.7186 C.3     1  UNL1        0.0196
     31 C          62.6131   82.1460   11.8200 C.3     1  UNL1        0.0017
     32 C          62.1339   81.3166   12.9742 C.3     1  UNL1        0.0001
     33 C          62.2257   82.5142   13.8729 C.3     1  UNL1        0.0017
@<TRIPOS>UNITY_ATOM_ATTR
17 1
charge 1
18 1
charge -1
@<TRIPOS>BOND
     1    16    17    1
     2    17    18    2
     3    17    15    1
     4    15     5    1
     5     5     6   ar
     6     6     7   ar
     7     7     8   ar
     8     8     1    1
     9     1     2    2
    10     1     3   am
    11     3    19    1
    12    19    20   ar
    13    20    21   ar
    14    21    22   ar
    15    22    23   ar
    16    23    24   ar
    17    24    25    1
    18    25    26    2
    19    25    27   am
    20    27    29    1
    21    29    30    1
    22    30    31    1
    23    31    32    1
    24    32    33    1
    25     8     9   ar
    26     9    10   ar
    27    10    11   ar
    28    11    12   ar
    29    12    13   ar
    30    13    14   ar
    31    14     5   ar
    32    24    19   ar
    33    33    30    1
    34    14     9   ar
    35     3     4    1
    36    27    28    1
@<TRIPOS>MOLECULE
*****
 33 36 0 0 0
SMALL
GASTEIGER

@<TRIPOS>ATOM
      1 C          63.8306   88.0944   14.3530 C.2     1  UNL1        0.2506
      2 O          63.3631   87.9812   15.7739 O.2     1  UNL1       -0.2698
      3 N          63.8324   86.8852   13.4655 N.am    1  UNL1       -0.2645
      4 H          64.1392   86.9595   12.5330 H       1  UNL1        0.1566
      5 C          65.2276   92.0617   12.7534 C.ar    1  UNL1        0.0366
      6 C          65.7638   91.5476   14.0565 C.ar    1  UNL1        0.0009
      7 C          65.2982   90.2252   14.5897 C.ar    1  UNL1        0.0044
      8 C          64.2962   89.4169   13.8198 C.ar    1  UNL1        0.0537
      9 C          63.7599   89.9310   12.5167 C.ar    1  UNL1        0.0042
     10 C          62.7580   89.1227   11.7468 C.ar    1  UNL1        0.0001
     11 C          62.2217   89.6368   10.4437 C.ar    1  UNL1        0.0000
     12 C          62.6874   90.9592    9.9105 C.ar    1  UNL1       -0.0000
     13 C          63.6893   91.7675   10.6804 C.ar    1  UNL1       -0.0002
     14 C          64.2256   91.2534   11.9834 C.ar    1  UNL1        0.0010
     15 C          65.6932   93.3842   12.2202 C.3     1  UNL1        0.2826
     16 C          66.7392   94.5065   10.1235 C.3     1  UNL1        0.3201
     17 S          66.7657   93.4349   11.1727 S.O     1  UNL1        0.0405
     18 O          67.8647   92.4140   11.1745 O.co2   1  UNL1       -0.6809
     19 C          63.3667   85.5628   13.9987 C.ar    1  UNL1        0.1567
     20 N          63.3422   85.3173   15.4782 N.ar    1  UNL1       -0.2257
     21 C          62.8765   83.9949   16.0115 C.ar    1  UNL1        0.1210
     22 C          62.4354   82.9179   15.0651 C.ar    1  UNL1        0.1197
     23 N          62.4600   83.1634   13.5855 N.ar    1  UNL1       -0.2348
     24 C          62.9256   84.4858   13.0523 C.ar    1  UNL1        0.1660
     25 C          62.9502   84.7313   11.5728 C.2     1  UNL1        0.2664
     26 O          63.8466   83.9129   10.6915 O.2     1  UNL1       -0.2684
     27 N          62.0783   85.7952   10.9745 N.am    1  UNL1       -0.2996
     28 H          61.4900   86.3323   11.5529 H       1  UNL1        0.1498
     29 C          62.1029   86.0407    9.4949 C.3     1  UNL1        0.0897
     30 C          60.8332   86.3730    8.7686 C.3     1  UNL1        0.0196
     31 C          59.7072   87.3393    8.9887 C.3     1  UNL1        0.0017
     32 C          59.0376   86.8430    7.7415 C.3     1  UNL1        0.0001
     33 C          60.1636   85.8768    7.5214 C.3     1  UNL1        0.0017
@<TRIPOS>UNITY_ATOM_ATTR
17 1
charge 1
18 1
charge -1
@<TRIPOS>BOND
     1    16    17    1
     2    17    18    2
     3    17    15    1
     4    15     5    1
     5     5     6   ar
     6     6     7   ar
     7     7     8   ar
     8     8     1    1
     9     1     2    2
    10     1     3   am
    11     3    19    1
    12    19    20   ar
    13    20    21   ar
    14    21    22   ar
    15    22    23   ar
    16    23    24   ar
    17    24    25    1
    18    25    26    2
    19    25    27   am
    20    27    29    1
    21    29    30    1
    22    30    31    1
    23    31    32    1
    24    32    33    1
    25     8     9   ar
    26     9    10   ar
    27    10    11   ar
    28    11    12   ar
    29    12    13   ar
    30    13    14   ar
    31    14     5   ar
    32    24    19   ar
    33    33    30    1
    34    14     9   ar
    35     3     4    1
    36    27    28    1
@<TRIPOS>MOLECULE
*****
 33 36 0 0 0
SMALL
GASTEIGER

@<TRIPOS>ATOM
      1 C          63.5466   89.3780   13.8625 C.2     1  UNL1        0.2506
      2 O          62.4702   89.6541   14.8701 O.2     1  UNL1       -0.2698
      3 N          64.0916   87.9890   13.7089 N.am    1  UNL1       -0.2645
      4 H          64.7981   87.8077   13.0476 H       1  UNL1        0.1566
      5 C          65.1405   92.7165   11.3006 C.ar    1  UNL1        0.0366
      6 C          64.1687   91.7288   10.7262 C.ar    1  UNL1        0.0009
      7 C          63.6374   90.6160   11.5802 C.ar    1  UNL1        0.0044
      8 C          64.0779   90.4908   13.0085 C.ar    1  UNL1        0.0537
      9 C          65.0498   91.4786   13.5830 C.ar    1  UNL1        0.0042
     10 C          65.4903   91.3534   15.0113 C.ar    1  UNL1        0.0001
     11 C          66.4621   92.3411   15.5857 C.ar    1  UNL1        0.0000
     12 C          66.9934   93.4540   14.7318 C.ar    1  UNL1       -0.0000
     13 C          66.5529   93.5791   13.3034 C.ar    1  UNL1       -0.0002
     14 C          65.5811   92.5914   12.7290 C.ar    1  UNL1        0.0010
     15 C          65.6719   93.8294   10.4466 C.3     1  UNL1        0.2826
     16 C          67.6542   94.8792    9.1359 C.3     1  UNL1        0.3201
     17 S          67.0037   93.6864    9.7716 S.O     1  UNL1        0.0405
     18 O          67.6850   92.3506    9.7321 O.co2   1  UNL1       -0.6809
     19 C          63.5603   86.8761   14.5629 C.ar    1  UNL1        0.1567
     20 N          63.5443   87.0186   16.0560 N.ar    1  UNL1       -0.2257
     21 C          63.0130   85.9057   16.9099 C.ar    1  UNL1        0.1210
     22 C          62.4977   84.6504   16.2708 C.ar    1  UNL1        0.1197
     23 N          62.5136   84.5079   14.7776 N.ar    1  UNL1       -0.2348
     24 C          63.0449   85.6208   13.9236 C.ar    1  UNL1        0.1660
     25 C          63.0609   85.4783   12.4305 C.2     1  UNL1        0.2664
     26 O          63.9449   84.4532   11.7843 O.2     1  UNL1       -0.2684
     27 N          62.1928   86.3610   11.5836 N.am    1  UNL1       -0.2996
     28 H          61.6126   87.0338   12.0078 H       1  UNL1        0.1498
     29 C          62.2087   86.2186   10.0904 C.3     1  UNL1        0.0897
     30 C          61.0007   86.6009    9.2877 C.3     1  UNL1        0.0196
     31 C          59.8940   87.6007    9.4474 C.3     1  UNL1        0.0017
     32 C          59.2923   87.1416    8.1523 C.3     1  UNL1        0.0001
     33 C          60.3991   86.1418    7.9926 C.3     1  UNL1        0.0017
@<TRIPOS>UNITY_ATOM_ATTR
17 1
charge 1
18 1
charge -1
@<TRIPOS>BOND
     1    16    17    1
     2    17    18    2
     3    17    15    1
     4    15     5    1
     5     5     6   ar
     6     6     7   ar
     7     7     8   ar
     8     8     1    1
     9     1     2    2
    10     1     3   am
    11     3    19    1
    12    19    20   ar
    13    20    21   ar
    14    21    22   ar
    15    22    23   ar
    16    23    24   ar
    17    24    25    1
    18    25    26    2
    19    25    27   am
    20    27    29    1
    21    29    30    1
    22    30    31    1
    23    31    32    1
    24    32    33    1
    25     8     9   ar
    26     9    10   ar
    27    10    11   ar
    28    11    12   ar
    29    12    13   ar
    30    13    14   ar
    31    14     5   ar
    32    24    19   ar
    33    33    30    1
    34    14     9   ar
    35     3     4    1
    36    27    28    1
@<TRIPOS>MOLECULE
*****
 33 36 0 0 0
SMALL
GASTEIGER

@<TRIPOS>ATOM
      1 C          62.1589   90.2167   10.6735 C.2     1  UNL1        0.2506
      2 O          60.7666   90.7644   10.7819 O.2     1  UNL1       -0.2698
      3 N          62.4147   88.9702    9.8793 N.am    1  UNL1       -0.2645
      4 H          63.3285   88.6108    9.8082 H       1  UNL1        0.1566
      5 C          65.5679   92.3133   12.7309 C.ar    1  UNL1        0.0366
      6 C          65.3384   92.5175   11.2628 C.ar    1  UNL1        0.0009
      7 C          64.2020   91.8186   10.5770 C.ar    1  UNL1        0.0044
      8 C          63.2952   90.9156   11.3593 C.ar    1  UNL1        0.0537
      9 C          63.5247   90.7114   12.8276 C.ar    1  UNL1        0.0042
     10 C          62.6178   89.8084   13.6100 C.ar    1  UNL1        0.0001
     11 C          62.8473   89.6042   15.0782 C.ar    1  UNL1        0.0000
     12 C          63.9837   90.3031   15.7640 C.ar    1  UNL1       -0.0000
     13 C          64.8905   91.2061   14.9816 C.ar    1  UNL1       -0.0002
     14 C          64.6610   91.4102   13.5134 C.ar    1  UNL1        0.0010
     15 C          66.7042   93.0122   13.4167 C.3     1  UNL1        0.2826
     16 C          68.4215   92.1543   15.1674 C.3     1  UNL1        0.3201
     17 S          67.9596   92.2594   13.7442 S.O     1  UNL1        0.0405
     18 O          68.7532   91.6116   12.6483 O.co2   1  UNL1       -0.6809
     19 C          61.2784   88.2714    9.1935 C.ar    1  UNL1        0.1567
     20 N          60.2999   89.0581    8.3728 N.ar    1  UNL1       -0.2257
     21 C          59.1636   88.3592    7.6870 C.ar    1  UNL1        0.1210
     22 C          59.0057   86.8737    7.8219 C.ar    1  UNL1        0.1197
     23 N          59.9843   86.0869    8.6427 N.ar    1  UNL1       -0.2348
     24 C          61.1206   86.7858    9.3285 C.ar    1  UNL1        0.1660
     25 C          62.0991   85.9991   10.1492 C.2     1  UNL1        0.2664
     26 O          63.1936   85.2264    9.4745 O.2     1  UNL1       -0.2684
     27 N          61.9833   85.9851   11.6446 N.am    1  UNL1       -0.2996
     28 H          61.2649   86.4923   12.0874 H       1  UNL1        0.1498
     29 C          62.9618   85.1984   12.4654 C.3     1  UNL1        0.0897
     30 C          62.7760   83.7204   12.6409 C.3     1  UNL1        0.0196
     31 C          62.4436   82.8230   13.7959 C.3     1  UNL1        0.0017
     32 C          62.5133   81.6301   12.8892 C.3     1  UNL1        0.0001
     33 C          62.8457   82.5275   11.7341 C.3     1  UNL1        0.0017
@<TRIPOS>UNITY_ATOM_ATTR
17 1
charge 1
18 1
charge -1
@<TRIPOS>BOND
     1    16    17    1
     2    17    18    2
     3    17    15    1
     4    15     5    1
     5     5     6   ar
     6     6     7   ar
     7     7     8   ar
     8     8     1    1
     9     1     2    2
    10     1     3   am
    11     3    19    1
    12    19    20   ar
    13    20    21   ar
    14    21    22   ar
    15    22    23   ar
    16    23    24   ar
    17    24    25    1
    18    25    26    2
    19    25    27   am
    20    27    29    1
    21    29    30    1
    22    30    31    1
    23    31    32    1
    24    32    33    1
    25     8     9   ar
    26     9    10   ar
    27    10    11   ar
    28    11    12   ar
    29    12    13   ar
    30    13    14   ar
    31    14     5   ar
    32    24    19   ar
    33    33    30    1
    34    14     9   ar
    35     3     4    1
    36    27    28    1
@<TRIPOS>MOLECULE
*****
 33 36 0 0 0
SMALL
GASTEIGER

@<TRIPOS>ATOM
      1 C          63.3502   90.0610   12.9556 C.2     1  UNL1        0.2506
      2 O          62.7461   89.9761   14.3260 O.2     1  UNL1       -0.2698
      3 N          64.5950   90.8678   12.7333 N.am    1  UNL1       -0.2645
      4 H          64.9915   90.9235   11.8339 H       1  UNL1        0.1566
      5 C          61.4276   87.8954    9.5112 C.ar    1  UNL1        0.0366
      6 C          61.4304   89.3950    9.5467 C.ar    1  UNL1        0.0009
      7 C          62.0712   90.1168   10.6948 C.ar    1  UNL1        0.0044
      8 C          62.7093   89.3392   11.8075 C.ar    1  UNL1        0.0537
      9 C          62.7065   87.8395   11.7720 C.ar    1  UNL1        0.0042
     10 C          63.3446   87.0619   12.8847 C.ar    1  UNL1        0.0001
     11 C          63.3418   85.5623   12.8492 C.ar    1  UNL1        0.0000
     12 C          62.7009   84.8404   11.7011 C.ar    1  UNL1       -0.0000
     13 C          62.0628   85.6181   10.5885 C.ar    1  UNL1       -0.0002
     14 C          62.0656   87.1177   10.6239 C.ar    1  UNL1        0.0010
     15 C          60.7867   87.1735    8.3631 C.3     1  UNL1        0.2826
     16 C          59.3211   88.9475    7.1569 C.3     1  UNL1        0.3201
     17 S          59.4518   87.6219    7.8465 S.O     1  UNL1        0.0405
     18 O          58.2474   86.7445    8.0195 O.co2   1  UNL1       -0.6809
     19 C          65.2359   91.5897   13.8814 C.ar    1  UNL1        0.1567
     20 N          64.6540   91.4737   15.2591 N.ar    1  UNL1       -0.2257
     21 C          65.2949   92.1955   16.4072 C.ar    1  UNL1        0.1210
     22 C          66.5176   93.0334   16.1777 C.ar    1  UNL1        0.1197
     23 N          67.0996   93.1495   14.8000 N.ar    1  UNL1       -0.2348
     24 C          66.4587   92.4276   13.6519 C.ar    1  UNL1        0.1660
     25 C          67.0407   92.5436   12.2743 C.2     1  UNL1        0.2664
     26 O          68.2575   91.7482   11.9047 O.2     1  UNL1       -0.2684
     27 N          66.4057   93.4550   11.2663 N.am    1  UNL1       -0.2996
     28 H          65.6070   93.9770   11.5089 H       1  UNL1        0.1498
     29 C          66.9876   93.5710    9.8886 C.3     1  UNL1        0.0897
     30 C          67.0774   94.9122    9.2229 C.3     1  UNL1        0.0196
     31 C          67.3841   96.3065    9.6833 C.3     1  UNL1        0.0017
     32 C          67.2044   96.8089    8.2814 C.3     1  UNL1        0.0001
     33 C          66.8977   95.4147    7.8210 C.3     1  UNL1        0.0017
@<TRIPOS>UNITY_ATOM_ATTR
17 1
charge 1
18 1
charge -1
@<TRIPOS>BOND
     1    16    17    1
     2    17    18    2
     3    17    15    1
     4    15     5    1
     5     5     6   ar
     6     6     7   ar
     7     7     8   ar
     8     8     1    1
     9     1     2    2
    10     1     3   am
    11     3    19    1
    12    19    20   ar
    13    20    21   ar
    14    21    22   ar
    15    22    23   ar
    16    23    24   ar
    17    24    25    1
    18    25    26    2
    19    25    27   am
    20    27    29    1
    21    29    30    1
    22    30    31    1
    23    31    32    1
    24    32    33    1
    25     8     9   ar
    26     9    10   ar
    27    10    11   ar
    28    11    12   ar
    29    12    13   ar
    30    13    14   ar
    31    14     5   ar
    32    24    19   ar
    33    33    30    1
    34    14     9   ar
    35     3     4    1
    36    27    28    1
@<TRIPOS>MOLECULE
*****
 33 36 0 0 0
SMALL
GASTEIGER

@<TRIPOS>ATOM
      1 C          63.9963   89.9350   14.8022 C.2     1  UNL1        0.2506
      2 O          63.2991   90.4831   16.0120 O.2     1  UNL1       -0.2698
      3 N          64.1273   88.4519   14.6197 N.am    1  UNL1       -0.2645
      4 H          64.5849   88.0922   13.8256 H       1  UNL1        0.1566
      5 C          65.6948   92.7399   11.7204 C.ar    1  UNL1        0.0366
      6 C          66.3110   92.6638   13.0859 C.ar    1  UNL1        0.0009
      7 C          65.7448   91.7288   14.1131 C.ar    1  UNL1        0.0044
      8 C          64.5625   90.8700   13.7749 C.ar    1  UNL1        0.0537
      9 C          63.9462   90.9461   12.4094 C.ar    1  UNL1        0.0042
     10 C          62.7639   90.0873   12.0712 C.ar    1  UNL1        0.0001
     11 C          62.1477   90.1635   10.7058 C.ar    1  UNL1        0.0000
     12 C          62.7139   91.0985    9.6785 C.ar    1  UNL1       -0.0000
     13 C          63.8962   91.9573   10.0167 C.ar    1  UNL1       -0.0002
     14 C          64.5124   91.8811   11.3822 C.ar    1  UNL1        0.0010
     15 C          66.2610   93.6749   10.6932 C.3     1  UNL1        0.2826
     16 C          67.9724   91.9180    9.8364 C.3     1  UNL1        0.3201
     17 S          67.5594   93.3487   10.0167 S.O     1  UNL1        0.0405
     18 O          68.4449   94.4532    9.5205 O.co2   1  UNL1       -0.6809
     19 C          63.5611   87.5169   15.6469 C.ar    1  UNL1        0.1567
     20 N          63.2434   88.0192   17.0241 N.ar    1  UNL1       -0.2257
     21 C          62.6772   87.0842   18.0514 C.ar    1  UNL1        0.1210
     22 C          62.4287   85.6469   17.7014 C.ar    1  UNL1        0.1197
     23 N          62.7465   85.1446   16.3241 N.ar    1  UNL1       -0.2348
     24 C          63.3126   86.0796   15.2969 C.ar    1  UNL1        0.1660
     25 C          63.6304   85.5773   13.9197 C.2     1  UNL1        0.2664
     26 O          63.3275   86.4288   12.7224 O.2     1  UNL1       -0.2684
     27 N          64.2509   84.2237   13.7397 N.am    1  UNL1       -0.2996
     28 H          64.4496   83.6648   14.5255 H       1  UNL1        0.1498
     29 C          64.5686   83.7213   12.3624 C.3     1  UNL1        0.0897
     30 C          63.8503   82.5228   11.8170 C.3     1  UNL1        0.0196
     31 C          63.7511   81.8671   10.4715 C.3     1  UNL1        0.0017
     32 C          62.8344   80.8278   11.0456 C.3     1  UNL1        0.0001
     33 C          62.9336   81.4835   12.3910 C.3     1  UNL1        0.0017
@<TRIPOS>UNITY_ATOM_ATTR
17 1
charge 1
18 1
charge -1
@<TRIPOS>BOND
     1    16    17    1
     2    17    18    2
     3    17    15    1
     4    15     5    1
     5     5     6   ar
     6     6     7   ar
     7     7     8   ar
     8     8     1    1
     9     1     2    2
    10     1     3   am
    11     3    19    1
    12    19    20   ar
    13    20    21   ar
    14    21    22   ar
    15    22    23   ar
    16    23    24   ar
    17    24    25    1
    18    25    26    2
    19    25    27   am
    20    27    29    1
    21    29    30    1
    22    30    31    1
    23    31    32    1
    24    32    33    1
    25     8     9   ar
    26     9    10   ar
    27    10    11   ar
    28    11    12   ar
    29    12    13   ar
    30    13    14   ar
    31    14     5   ar
    32    24    19   ar
    33    33    30    1
    34    14     9   ar
    35     3     4    1
    36    27    28    1
@<TRIPOS>MOLECULE
*****
 33 36 0 0 0
SMALL
GASTEIGER

@<TRIPOS>ATOM
      1 C          62.5625   88.4884   12.3159 C.2     1  UNL1        0.2506
      2 O          61.3492   89.3162   12.6203 O.2     1  UNL1       -0.2698
      3 N          63.7982   88.6324   13.1539 N.am    1  UNL1       -0.2645
      4 H          64.5945   88.0890   12.9542 H       1  UNL1        0.1566
      5 C          62.4951   85.5726    8.8890 C.ar    1  UNL1        0.0366
      6 C          62.2021   87.0234    8.6453 C.ar    1  UNL1        0.0009
      7 C          62.2246   87.9953    9.7876 C.ar    1  UNL1        0.0044
      8 C          62.5400   87.5164   11.1736 C.ar    1  UNL1        0.0537
      9 C          62.8330   86.0656   11.4174 C.ar    1  UNL1        0.0042
     10 C          63.1485   85.5868   12.8035 C.ar    1  UNL1        0.0001
     11 C          63.4414   84.1360   13.0472 C.ar    1  UNL1        0.0000
     12 C          63.4189   83.1641   11.9049 C.ar    1  UNL1       -0.0000
     13 C          63.1035   83.6430   10.5188 C.ar    1  UNL1       -0.0002
     14 C          62.8105   85.0937   10.2751 C.ar    1  UNL1        0.0010
     15 C          62.4726   84.6007    7.7467 C.3     1  UNL1        0.2826
     16 C          61.7549   84.3311    5.2643 C.3     1  UNL1        0.3201
     17 S          61.4315   84.7276    6.6744 S.O     1  UNL1        0.0405
     18 O          60.0669   85.2510    7.0121 O.co2   1  UNL1       -0.6809
     19 C          63.8207   89.6043   14.2962 C.ar    1  UNL1        0.1567
     20 N          63.3541   89.1749   15.6556 N.ar    1  UNL1       -0.2257
     21 C          63.3765   90.1469   16.7979 C.ar    1  UNL1        0.1210
     22 C          63.8657   91.5481   16.5809 C.ar    1  UNL1        0.1197
     23 N          64.3323   91.9776   15.2215 N.ar    1  UNL1       -0.2348
     24 C          64.3099   91.0056   14.0791 C.ar    1  UNL1        0.1660
     25 C          64.7765   91.4350   12.7198 C.2     1  UNL1        0.2664
     26 O          63.9250   91.1653   11.5147 O.2     1  UNL1       -0.2684
     27 N          66.0946   92.1341   12.5656 N.am    1  UNL1       -0.2996
     28 H          66.6535   92.3111   13.3565 H       1  UNL1        0.1498
     29 C          66.5613   92.5635   11.2062 C.3     1  UNL1        0.0897
     30 C          66.6327   94.0221   10.8638 C.3     1  UNL1        0.0196
     31 C          67.2178   94.8195    9.7361 C.3     1  UNL1        0.0017
     32 C          66.7336   96.0850   10.3796 C.3     1  UNL1        0.0001
     33 C          66.1484   95.2876   11.5074 C.3     1  UNL1        0.0017
@<TRIPOS>UNITY_ATOM_ATTR
17 1
charge 1
18 1
charge -1
@<TRIPOS>BOND
     1    16    17    1
     2    17    18    2
     3    17    15    1
     4    15     5    1
     5     5     6   ar
     6     6     7   ar
     7     7     8   ar
     8     8     1    1
     9     1     2    2
    10     1     3   am
    11     3    19    1
    12    19    20   ar
    13    20    21   ar
    14    21    22   ar
    15    22    23   ar
    16    23    24   ar
    17    24    25    1
    18    25    26    2
    19    25    27   am
    20    27    29    1
    21    29    30    1
    22    30    31    1
    23    31    32    1
    24    32    33    1
    25     8     9   ar
    26     9    10   ar
    27    10    11   ar
    28    11    12   ar
    29    12    13   ar
    30    13    14   ar
    31    14     5   ar
    32    24    19   ar
    33    33    30    1
    34    14     9   ar
    35     3     4    1
    36    27    28    1
@<TRIPOS>MOLECULE
*****
 33 36 0 0 0
SMALL
GASTEIGER

@<TRIPOS>ATOM
      1 C          63.5764   89.0984   12.9745 C.2     1  UNL1        0.2506
      2 O          64.3663   88.3464   14.0044 O.2     1  UNL1       -0.2698
      3 N          63.5086   90.5959   13.0277 N.am    1  UNL1       -0.2645
      4 H          62.9902   91.0895   12.3517 H       1  UNL1        0.1566
      5 C          61.4104   86.8618    9.7255 C.ar    1  UNL1        0.0366
      6 C          61.4853   88.3594    9.6835 C.ar    1  UNL1        0.0009
      7 C          62.2073   89.1049   10.7665 C.ar    1  UNL1        0.0044
      8 C          62.8544   88.3529   11.8915 C.ar    1  UNL1        0.0537
      9 C          62.7796   86.8553   11.9335 C.ar    1  UNL1        0.0042
     10 C          63.4268   86.1033   13.0585 C.ar    1  UNL1        0.0001
     11 C          63.3519   84.6058   13.1005 C.ar    1  UNL1        0.0000
     12 C          62.6299   83.8603   12.0175 C.ar    1  UNL1       -0.0000
     13 C          61.9828   84.6123   10.8925 C.ar    1  UNL1       -0.0002
     14 C          62.0576   86.1098   10.8505 C.ar    1  UNL1        0.0010
     15 C          60.6884   86.1163    8.6425 C.3     1  UNL1        0.2826
     16 C          62.9564   85.2544    7.7132 C.3     1  UNL1        0.3201
     17 S          61.4660   85.3759    7.5950 S.O     1  UNL1        0.0405
     18 O          60.7531   84.7569    6.4294 O.co2   1  UNL1       -0.6809
     19 C          64.2306   91.3414   14.1107 C.ar    1  UNL1        0.1567
     20 N          63.9489   91.0311   15.5509 N.ar    1  UNL1       -0.2257
     21 C          64.6709   91.7766   16.6339 C.ar    1  UNL1        0.1210
     22 C          65.6746   92.8325   16.2767 C.ar    1  UNL1        0.1197
     23 N          65.9563   93.1429   14.8364 N.ar    1  UNL1       -0.2348
     24 C          65.2343   92.3974   13.7534 C.ar    1  UNL1        0.1660
     25 C          65.5160   92.7077   12.3132 C.2     1  UNL1        0.2664
     26 O          64.9701   91.8203   11.2340 O.2     1  UNL1       -0.2684
     27 N          66.3436   93.9055   11.9521 N.am    1  UNL1       -0.2996
     28 H          66.7019   94.4879   12.6604 H       1  UNL1        0.1498
     29 C          66.6253   94.2159   10.5118 C.3     1  UNL1        0.0897
     30 C          67.5802   93.3605    9.7331 C.3     1  UNL1        0.0196
     31 C          68.2651   93.4755    8.4036 C.3     1  UNL1        0.0017
     32 C          68.9305   92.1506    8.6318 C.3     1  UNL1        0.0001
     33 C          68.2455   92.0356    9.9613 C.3     1  UNL1        0.0017
@<TRIPOS>UNITY_ATOM_ATTR
17 1
charge 1
18 1
charge -1
@<TRIPOS>BOND
     1    16    17    1
     2    17    18    2
     3    17    15    1
     4    15     5    1
     5     5     6   ar
     6     6     7   ar
     7     7     8   ar
     8     8     1    1
     9     1     2    2
    10     1     3   am
    11     3    19    1
    12    19    20   ar
    13    20    21   ar
    14    21    22   ar
    15    22    23   ar
    16    23    24   ar
    17    24    25    1
    18    25    26    2
    19    25    27   am
    20    27    29    1
    21    29    30    1
    22    30    31    1
    23    31    32    1
    24    32    33    1
    25     8     9   ar
    26     9    10   ar
    27    10    11   ar
    28    11    12   ar
    29    12    13   ar
    30    13    14   ar
    31    14     5   ar
    32    24    19   ar
    33    33    30    1
    34    14     9   ar
    35     3     4    1
    36    27    28    1
@<TRIPOS>MOLECULE
*****
 33 36 0 0 0
SMALL
GASTEIGER

@<TRIPOS>ATOM
      1 C          64.0239   89.9912   14.5672 C.2     1  UNL1        0.2506
      2 O          62.9507   90.5444   15.4574 O.2     1  UNL1       -0.2698
      3 N          64.3692   88.5327   14.6261 N.am    1  UNL1       -0.2645
      4 H          65.0735   88.1696   14.0418 H       1  UNL1        0.1566
      5 C          66.2071   92.7072   11.7200 C.ar    1  UNL1        0.0366
      6 C          64.8942   92.1015   11.3208 C.ar    1  UNL1        0.0009
      7 C          64.1665   91.1961   12.2699 C.ar    1  UNL1        0.0044
      8 C          64.7516   90.8965   13.6181 C.ar    1  UNL1        0.0537
      9 C          66.0645   91.5023   14.0174 C.ar    1  UNL1        0.0042
     10 C          66.6497   91.2027   15.3656 C.ar    1  UNL1        0.0001
     11 C          67.9625   91.8085   15.7648 C.ar    1  UNL1        0.0000
     12 C          68.6902   92.7139   14.8157 C.ar    1  UNL1       -0.0000
     13 C          68.1051   93.0134   13.4675 C.ar    1  UNL1       -0.0002
     14 C          66.7923   92.4077   13.0683 C.ar    1  UNL1        0.0010
     15 C          66.9348   93.6126   10.7709 C.3     1  UNL1        0.2826
     16 C          66.1664   95.9124   11.7038 C.3     1  UNL1        0.3201
     17 S          66.4394   95.0091   10.5378 S.O     1  UNL1        0.0405
     18 O          66.2170   95.5023    9.1388 O.co2   1  UNL1       -0.6809
     19 C          63.6415   87.6273   15.5752 C.ar    1  UNL1        0.1567
     20 N          63.2774   88.1147   16.9463 N.ar    1  UNL1       -0.2257
     21 C          62.5497   87.2093   17.8953 C.ar    1  UNL1        0.1210
     22 C          62.1860   85.8166   17.4733 C.ar    1  UNL1        0.1197
     23 N          62.5501   85.3292   16.1022 N.ar    1  UNL1       -0.2348
     24 C          63.2778   86.2346   15.1531 C.ar    1  UNL1        0.1660
     25 C          63.6419   85.7473   13.7820 C.2     1  UNL1        0.2664
     26 O          63.4677   86.6478   12.5952 O.2     1  UNL1       -0.2684
     27 N          64.1802   84.3594   13.5978 N.am    1  UNL1       -0.2996
     28 H          64.2945   83.7683   14.3768 H       1  UNL1        0.1498
     29 C          64.5443   83.8720   12.2267 C.3     1  UNL1        0.0897
     30 C          63.8903   82.6424   11.6696 C.3     1  UNL1        0.0196
     31 C          63.1032   81.5046   12.2491 C.3     1  UNL1        0.0017
     32 C          62.9655   80.9034   10.8818 C.3     1  UNL1        0.0001
     33 C          63.7526   82.0412   10.3023 C.3     1  UNL1        0.0017
@<TRIPOS>UNITY_ATOM_ATTR
17 1
charge 1
18 1
charge -1
@<TRIPOS>BOND
     1    16    17    1
     2    17    18    2
     3    17    15    1
     4    15     5    1
     5     5     6   ar
     6     6     7   ar
     7     7     8   ar
     8     8     1    1
     9     1     2    2
    10     1     3   am
    11     3    19    1
    12    19    20   ar
    13    20    21   ar
    14    21    22   ar
    15    22    23   ar
    16    23    24   ar
    17    24    25    1
    18    25    26    2
    19    25    27   am
    20    27    29    1
    21    29    30    1
    22    30    31    1
    23    31    32    1
    24    32    33    1
    25     8     9   ar
    26     9    10   ar
    27    10    11   ar
    28    11    12   ar
    29    12    13   ar
    30    13    14   ar
    31    14     5   ar
    32    24    19   ar
    33    33    30    1
    34    14     9   ar
    35     3     4    1
    36    27    28    1
