@<TRIPOS>MOLECULE
*****
 24 27 0 0 0
SMALL
GASTEIGER

@<TRIPOS>ATOM
      1 O          62.7683   90.8431   10.1830 O.2     1  UNL1       -0.2526
      2 C          63.1385   90.3141   11.5370 C.2     1  UNL1        0.3039
      3 N          62.3969   89.1449   12.1140 N.am    1  UNL1       -0.2901
      4 N          64.2504   90.9544   12.3140 N.am    1  UNL1       -0.2642
      5 C          64.9920   92.1237   11.7370 C.3     1  UNL1        0.0954
      6 C          66.1039   92.7640   12.5140 C.3     1  UNL1        0.0309
      7 C          66.4741   92.2351   13.8680 C.3     1  UNL1        0.0816
      8 C          65.7325   91.0659   14.4449 C.3     1  UNL1        0.0309
      9 C          64.6206   90.4255   13.6679 C.3     1  UNL1        0.0954
     10 H          62.6399   88.7978   13.0026 H       1  UNL1        0.1509
     11 C          67.5860   92.8754   14.6450 C.ar    1  UNL1        0.2263
     12 N          69.0530   92.7291   14.3683 N.ar    1  UNL1       -0.1113
     13 N          69.7998   93.5377   15.3874 N.ar    1  UNL1       -0.1023
     14 C          68.7943   94.1837   16.2939 C.ar    1  UNL1        0.3056
     15 O          67.4261   93.7744   15.8350 O.2     1  UNL1       -0.4161
     16 C          61.2850   88.5046   11.3370 C.3     1  UNL1        0.0774
     17 C          59.8187   88.3074   11.0900 C.3     1  UNL1        0.0259
     18 C          60.8255   87.5927   10.2382 C.3     1  UNL1        0.0420
     19 C          61.1415   86.6536    9.1120 C.ar    1  UNL1       -0.0208
     20 C          60.0821   86.2997    8.1109 C.ar    1  UNL1       -0.0042
     21 C          60.3982   85.3606    6.9847 C.ar    1  UNL1       -0.0003
     22 C          61.7736   84.7754    6.8598 C.ar    1  UNL1       -0.0000
     23 C          62.8331   85.1293    7.8609 C.ar    1  UNL1       -0.0003
     24 C          62.5170   86.0684    8.9870 C.ar    1  UNL1       -0.0042
@<TRIPOS>BOND
     1     1     2    2
     2     2     3   am
     3     3    16    1
     4    16    17    1
     5    17    18    1
     6    18    19    1
     7    19    20   ar
     8    20    21   ar
     9    21    22   ar
    10    22    23   ar
    11    23    24   ar
    12     2     4   am
    13     4     5    1
    14     5     6    1
    15     6     7    1
    16     7    11    1
    17    11    12   ar
    18    12    13   ar
    19    13    14   ar
    20    14    15   ar
    21     7     8    1
    22     8     9    1
    23    18    16    1
    24    24    19   ar
    25     9     4    1
    26    15    11   ar
    27     3    10    1
@<TRIPOS>MOLECULE
*****
 24 27 0 0 0
SMALL
GASTEIGER

@<TRIPOS>ATOM
      1 O          63.0826   89.0599   13.0465 O.2     1  UNL1       -0.2526
      2 C          64.0020   90.0326   13.7238 C.2     1  UNL1        0.3039
      3 N          64.3395   89.8597   15.1750 N.am    1  UNL1       -0.2901
      4 N          64.5838   91.1783   12.9498 N.am    1  UNL1       -0.2642
      5 C          64.2462   91.3512   11.4985 C.3     1  UNL1        0.0954
      6 C          64.8280   92.4968   10.7245 C.3     1  UNL1        0.0309
      7 C          65.7474   93.4695   11.4018 C.3     1  UNL1        0.0816
      8 C          66.0849   93.2966   12.8531 C.3     1  UNL1        0.0309
      9 C          65.5031   92.1509   13.6271 C.3     1  UNL1        0.0954
     10 H          64.9429   90.4981   15.6196 H       1  UNL1        0.1509
     11 C          66.3292   94.6151   10.6278 C.ar    1  UNL1        0.2263
     12 N          67.0605   94.5159    9.3220 N.ar    1  UNL1       -0.1113
     13 N          67.4651   95.9006    8.9108 N.ar    1  UNL1       -0.1023
     14 C          66.9838   96.8556    9.9627 C.ar    1  UNL1        0.3056
     15 O          66.2818   96.0611   11.0238 O.2     1  UNL1       -0.4161
     16 C          63.7577   88.7141   15.9490 C.3     1  UNL1        0.0774
     17 C          63.0067   88.2003   17.1415 C.3     1  UNL1        0.0259
     18 C          63.5011   87.2437   16.0972 C.3     1  UNL1        0.0420
     19 C          63.6384   85.8424   15.5798 C.ar    1  UNL1       -0.0208
     20 C          64.8314   85.4612   14.7544 C.ar    1  UNL1       -0.0042
     21 C          64.9687   84.0600   14.2371 C.ar    1  UNL1       -0.0003
     22 C          63.9129   83.0400   14.5451 C.ar    1  UNL1       -0.0000
     23 C          62.7198   83.4212   15.3705 C.ar    1  UNL1       -0.0003
     24 C          62.5826   84.8224   15.8878 C.ar    1  UNL1       -0.0042
@<TRIPOS>BOND
     1     1     2    2
     2     2     3   am
     3     3    16    1
     4    16    17    1
     5    17    18    1
     6    18    19    1
     7    19    20   ar
     8    20    21   ar
     9    21    22   ar
    10    22    23   ar
    11    23    24   ar
    12     2     4   am
    13     4     5    1
    14     5     6    1
    15     6     7    1
    16     7    11    1
    17    11    12   ar
    18    12    13   ar
    19    13    14   ar
    20    14    15   ar
    21     7     8    1
    22     8     9    1
    23    18    16    1
    24    24    19   ar
    25     9     4    1
    26    15    11   ar
    27     3    10    1
@<TRIPOS>MOLECULE
*****
 24 27 0 0 0
SMALL
GASTEIGER

@<TRIPOS>ATOM
      1 O          62.9533   88.1838   12.6871 O.2     1  UNL1       -0.2526
      2 C          63.9598   88.9785   13.4652 C.2     1  UNL1        0.3039
      3 N          64.4769   88.4581   14.7736 N.am    1  UNL1       -0.2901
      4 N          64.4492   90.2935   12.9350 N.am    1  UNL1       -0.2642
      5 C          63.9321   90.8139   11.6265 C.3     1  UNL1        0.0954
      6 C          64.4215   92.1289   11.0963 C.3     1  UNL1        0.0309
      7 C          65.4280   92.9236   11.8745 C.3     1  UNL1        0.0816
      8 C          65.9451   92.4032   13.1828 C.3     1  UNL1        0.0309
      9 C          65.4557   91.0882   13.7131 C.3     1  UNL1        0.0954
     10 H          65.1374   88.9797   15.2843 H       1  UNL1        0.1509
     11 C          65.9174   94.2386   11.3442 C.ar    1  UNL1        0.2263
     12 N          66.3943   94.5035    9.9469 N.ar    1  UNL1       -0.1113
     13 N          66.7875   95.9482    9.8573 N.ar    1  UNL1       -0.1023
     14 C          66.5536   96.5764   11.1992 C.ar    1  UNL1        0.3056
     15 O          66.0159   95.5198   12.1181 O.2     1  UNL1       -0.4161
     16 C          63.9874   87.1431   15.3038 C.3     1  UNL1        0.0774
     17 C          63.6024   86.2719   16.4626 C.3     1  UNL1        0.0259
     18 C          63.5249   85.7366   15.0635 C.3     1  UNL1        0.0420
     19 C          63.2130   84.6155   14.1169 C.ar    1  UNL1       -0.0208
     20 C          63.3452   84.8244   12.6374 C.ar    1  UNL1       -0.0042
     21 C          63.0334   83.7033   11.6910 C.ar    1  UNL1       -0.0003
     22 C          62.5894   82.3734   12.2239 C.ar    1  UNL1       -0.0000
     23 C          62.4572   82.1645   13.7034 C.ar    1  UNL1       -0.0003
     24 C          62.7690   83.2856   14.6499 C.ar    1  UNL1       -0.0042
@<TRIPOS>BOND
     1     1     2    2
     2     2     3   am
     3     3    16    1
     4    16    17    1
     5    17    18    1
     6    18    19    1
     7    19    20   ar
     8    20    21   ar
     9    21    22   ar
    10    22    23   ar
    11    23    24   ar
    12     2     4   am
    13     4     5    1
    14     5     6    1
    15     6     7    1
    16     7    11    1
    17    11    12   ar
    18    12    13   ar
    19    13    14   ar
    20    14    15   ar
    21     7     8    1
    22     8     9    1
    23    18    16    1
    24    24    19   ar
    25     9     4    1
    26    15    11   ar
    27     3    10    1
@<TRIPOS>MOLECULE
*****
 24 27 0 0 0
SMALL
GASTEIGER

@<TRIPOS>ATOM
      1 O          64.6714   88.3233   14.9106 O.2     1  UNL1       -0.2526
      2 C          63.9621   87.7879   13.7022 C.2     1  UNL1        0.3039
      3 N          63.5474   88.7192   12.6020 N.am    1  UNL1       -0.2901
      4 N          63.6676   86.3211   13.5941 N.am    1  UNL1       -0.2642
      5 C          64.0823   85.3897   14.6944 C.3     1  UNL1        0.0954
      6 C          63.7878   83.9229   14.5863 C.3     1  UNL1        0.0309
      7 C          63.0785   83.3874   13.3779 C.3     1  UNL1        0.0816
      8 C          62.6638   84.3188   12.2776 C.3     1  UNL1        0.0309
      9 C          62.9583   85.7856   12.3857 C.3     1  UNL1        0.0954
     10 H          63.0819   88.3678   11.8089 H       1  UNL1        0.1509
     11 C          62.7839   81.9206   13.2697 C.ar    1  UNL1        0.2263
     12 N          62.9367   81.0791   12.0375 N.ar    1  UNL1       -0.1113
     13 N          62.5321   79.6762   12.3810 N.ar    1  UNL1       -0.1023
     14 C          62.1292   79.6506   13.8257 C.ar    1  UNL1        0.3056
     15 O          62.2848   81.0377   14.3749 O.2     1  UNL1       -0.4161
     16 C          63.8420   90.1860   12.7101 C.3     1  UNL1        0.0774
     17 C          63.5233   91.6054   12.3443 C.3     1  UNL1        0.0259
     18 C          64.6708   91.3072   13.2632 C.3     1  UNL1        0.0420
     19 C          65.8119   91.7824   14.1131 C.ar    1  UNL1       -0.0208
     20 C          67.1938   91.8644   13.5356 C.ar    1  UNL1       -0.0042
     21 C          68.3348   92.3396   14.3854 C.ar    1  UNL1       -0.0003
     22 C          68.0938   92.7327   15.8128 C.ar    1  UNL1       -0.0000
     23 C          66.7119   92.6507   16.3903 C.ar    1  UNL1       -0.0003
     24 C          65.5709   92.1755   15.5404 C.ar    1  UNL1       -0.0042
@<TRIPOS>BOND
     1     1     2    2
     2     2     3   am
     3     3    16    1
     4    16    17    1
     5    17    18    1
     6    18    19    1
     7    19    20   ar
     8    20    21   ar
     9    21    22   ar
    10    22    23   ar
    11    23    24   ar
    12     2     4   am
    13     4     5    1
    14     5     6    1
    15     6     7    1
    16     7    11    1
    17    11    12   ar
    18    12    13   ar
    19    13    14   ar
    20    14    15   ar
    21     7     8    1
    22     8     9    1
    23    18    16    1
    24    24    19   ar
    25     9     4    1
    26    15    11   ar
    27     3    10    1
@<TRIPOS>MOLECULE
*****
 24 27 0 0 0
SMALL
GASTEIGER

@<TRIPOS>ATOM
      1 O          64.2288   85.9855   15.9364 O.2     1  UNL1       -0.2526
      2 C          63.8847   86.0223   14.4768 C.2     1  UNL1        0.3039
      3 N          63.7525   87.3389   13.7704 N.am    1  UNL1       -0.2901
      4 N          63.6728   84.7425   13.7237 N.am    1  UNL1       -0.2642
      5 C          63.8050   83.4258   14.4302 C.3     1  UNL1        0.0954
      6 C          63.5930   82.1460   13.6771 C.3     1  UNL1        0.0309
      7 C          63.2489   82.1828   12.2175 C.3     1  UNL1        0.0816
      8 C          63.1167   83.4994   11.5111 C.3     1  UNL1        0.0309
      9 C          63.3286   84.7793   12.2642 C.3     1  UNL1        0.0954
     10 H          63.5267   87.3630   12.8125 H       1  UNL1        0.1509
     11 C          63.0369   80.9030   11.4644 C.ar    1  UNL1        0.2263
     12 N          62.7067   79.5697   12.0671 N.ar    1  UNL1       -0.1113
     13 N          62.5837   78.5744   10.9516 N.ar    1  UNL1       -0.1023
     14 C          62.8379   79.2927    9.6595 C.ar    1  UNL1        0.3056
     15 O          63.1180   80.7318    9.9765 O.2     1  UNL1       -0.4161
     16 C          63.9645   88.6187   14.5235 C.3     1  UNL1        0.0774
     17 C          63.8294   89.4226   15.7826 C.3     1  UNL1        0.0259
     18 C          64.4666   90.0314   14.5687 C.3     1  UNL1        0.0420
     19 C          65.1243   91.1986   13.8940 C.ar    1  UNL1       -0.0208
     20 C          66.2156   91.9525   14.5945 C.ar    1  UNL1       -0.0042
     21 C          66.8733   93.1195   13.9198 C.ar    1  UNL1       -0.0003
     22 C          66.4398   93.5327   12.5445 C.ar    1  UNL1       -0.0000
     23 C          65.3485   92.7788   11.8440 C.ar    1  UNL1       -0.0003
     24 C          64.6908   91.6117   12.5187 C.ar    1  UNL1       -0.0042
@<TRIPOS>BOND
     1     1     2    2
     2     2     3   am
     3     3    16    1
     4    16    17    1
     5    17    18    1
     6    18    19    1
     7    19    20   ar
     8    20    21   ar
     9    21    22   ar
    10    22    23   ar
    11    23    24   ar
    12     2     4   am
    13     4     5    1
    14     5     6    1
    15     6     7    1
    16     7    11    1
    17    11    12   ar
    18    12    13   ar
    19    13    14   ar
    20    14    15   ar
    21     7     8    1
    22     8     9    1
    23    18    16    1
    24    24    19   ar
    25     9     4    1
    26    15    11   ar
    27     3    10    1
@<TRIPOS>MOLECULE
*****
 24 27 0 0 0
SMALL
GASTEIGER

@<TRIPOS>ATOM
      1 O          62.5250   88.9490   12.8641 O.2     1  UNL1       -0.2526
      2 C          63.1414   90.1580   12.2249 C.2     1  UNL1        0.3039
      3 N          62.6114   90.6675   10.9174 N.am    1  UNL1       -0.2901
      4 N          64.2877   90.8575   12.8933 N.am    1  UNL1       -0.2642
      5 C          64.8176   90.3479   14.2008 C.3     1  UNL1        0.0954
      6 C          65.9639   91.0474   14.8692 C.3     1  UNL1        0.0309
      7 C          66.5803   92.2564   14.2301 C.3     1  UNL1        0.0816
      8 C          66.0504   92.7659   12.9226 C.3     1  UNL1        0.0309
      9 C          64.9041   92.0664   12.2542 C.3     1  UNL1        0.0954
     10 H          63.0160   91.4610   10.4980 H       1  UNL1        0.1509
     11 C          67.7266   92.9559   14.8984 C.ar    1  UNL1        0.2263
     12 N          67.6224   93.9424   16.0235 N.ar    1  UNL1       -0.1113
     13 N          69.0098   94.3879   16.3795 N.ar    1  UNL1       -0.1023
     14 C          69.9715   93.6766   15.4744 C.ar    1  UNL1        0.3056
     15 O          69.1785   92.7916   14.5591 O.2     1  UNL1       -0.4161
     16 C          61.4651   89.9681   10.2491 C.3     1  UNL1        0.0774
     17 C          60.0140   89.9204    9.8726 C.3     1  UNL1        0.0259
     18 C          60.9309   88.8043    9.4679 C.3     1  UNL1        0.0420
     19 C          61.1518   87.4880    8.7833 C.ar    1  UNL1       -0.0208
     20 C          62.4464   86.7537    8.9698 C.ar    1  UNL1       -0.0042
     21 C          62.6673   85.4374    8.2852 C.ar    1  UNL1       -0.0003
     22 C          61.5936   84.8556    7.4141 C.ar    1  UNL1       -0.0000
     23 C          60.2991   85.5899    7.2277 C.ar    1  UNL1       -0.0003
     24 C          60.0782   86.9062    7.9123 C.ar    1  UNL1       -0.0042
@<TRIPOS>BOND
     1     1     2    2
     2     2     3   am
     3     3    16    1
     4    16    17    1
     5    17    18    1
     6    18    19    1
     7    19    20   ar
     8    20    21   ar
     9    21    22   ar
    10    22    23   ar
    11    23    24   ar
    12     2     4   am
    13     4     5    1
    14     5     6    1
    15     6     7    1
    16     7    11    1
    17    11    12   ar
    18    12    13   ar
    19    13    14   ar
    20    14    15   ar
    21     7     8    1
    22     8     9    1
    23    18    16    1
    24    24    19   ar
    25     9     4    1
    26    15    11   ar
    27     3    10    1
@<TRIPOS>MOLECULE
*****
 24 27 0 0 0
SMALL
GASTEIGER

@<TRIPOS>ATOM
      1 O          63.0467   88.8190   12.2559 O.2     1  UNL1       -0.2526
      2 C          63.5760   87.8728   13.2925 C.2     1  UNL1        0.3039
      3 N          64.2825   88.4058   14.5036 N.am    1  UNL1       -0.2901
      4 N          63.3989   86.3935   13.1180 N.am    1  UNL1       -0.2642
      5 C          62.6924   85.8605   11.9068 C.3     1  UNL1        0.0954
      6 C          62.5152   84.3813   11.7322 C.3     1  UNL1        0.0309
      7 C          63.0446   83.4351   12.7688 C.3     1  UNL1        0.0816
      8 C          63.7510   83.9680   13.9799 C.3     1  UNL1        0.0309
      9 C          63.9282   85.4473   14.1545 C.3     1  UNL1        0.0954
     10 H          64.6299   87.7847   15.1840 H       1  UNL1        0.1509
     11 C          62.8674   81.9558   12.5942 C.ar    1  UNL1        0.2263
     12 N          63.0383   81.1923   11.3145 N.ar    1  UNL1       -0.1113
     13 N          62.7648   79.7450   11.5981 N.ar    1  UNL1       -0.1023
     14 C          62.4248   79.6140   13.0531 C.ar    1  UNL1        0.3056
     15 O          62.4883   80.9803   13.6688 O.2     1  UNL1       -0.4161
     16 C          64.4596   89.8850   14.6782 C.3     1  UNL1        0.0774
     17 C          64.4434   91.1005   15.5570 C.3     1  UNL1        0.0259
     18 C          64.7827   91.2316   14.1018 C.3     1  UNL1        0.0420
     19 C          65.1651   92.0847   12.9287 C.ar    1  UNL1       -0.0208
     20 C          64.5983   91.7911   11.5713 C.ar    1  UNL1       -0.0042
     21 C          64.9807   92.6442   10.3984 C.ar    1  UNL1       -0.0003
     22 C          65.9298   93.7910   10.5828 C.ar    1  UNL1       -0.0000
     23 C          66.4966   94.0847   11.9402 C.ar    1  UNL1       -0.0003
     24 C          66.1142   93.2316   13.1131 C.ar    1  UNL1       -0.0042
@<TRIPOS>BOND
     1     1     2    2
     2     2     3   am
     3     3    16    1
     4    16    17    1
     5    17    18    1
     6    18    19    1
     7    19    20   ar
     8    20    21   ar
     9    21    22   ar
    10    22    23   ar
    11    23    24   ar
    12     2     4   am
    13     4     5    1
    14     5     6    1
    15     6     7    1
    16     7    11    1
    17    11    12   ar
    18    12    13   ar
    19    13    14   ar
    20    14    15   ar
    21     7     8    1
    22     8     9    1
    23    18    16    1
    24    24    19   ar
    25     9     4    1
    26    15    11   ar
    27     3    10    1
@<TRIPOS>MOLECULE
*****
 24 27 0 0 0
SMALL
GASTEIGER

@<TRIPOS>ATOM
      1 O          63.7672   88.7962   13.3571 O.2     1  UNL1       -0.2526
      2 C          63.2172   87.8624   12.3200 C.2     1  UNL1        0.3039
      3 N          62.7643   88.3973   10.9938 N.am    1  UNL1       -0.2901
      4 N          63.1201   86.3937   12.6091 N.am    1  UNL1       -0.2642
      5 C          63.5730   85.8589   13.9354 C.3     1  UNL1        0.0954
      6 C          63.4760   84.3902   14.2245 C.3     1  UNL1        0.0309
      7 C          62.9260   83.4564   13.1873 C.3     1  UNL1        0.0816
      8 C          62.4731   83.9912   11.8612 C.3     1  UNL1        0.0309
      9 C          62.5701   85.4599   11.5721 C.3     1  UNL1        0.0954
     10 H          62.4033   87.7844   10.3132 H       1  UNL1        0.1509
     11 C          62.8289   81.9877   13.4765 C.ar    1  UNL1        0.2263
     12 N          63.8725   81.1521   14.1567 N.ar    1  UNL1       -0.1113
     13 N          63.3597   79.7447   14.2367 N.ar    1  UNL1       -0.1023
     14 C          61.9992   79.7105   13.6060 C.ar    1  UNL1        0.3056
     15 O          61.6712   81.0967   13.1361 O.2     1  UNL1       -0.4161
     16 C          62.8614   89.8659   10.7047 C.3     1  UNL1        0.0774
     17 C          62.3675   91.0825    9.9795 C.3     1  UNL1        0.0259
     18 C          63.5234   91.1931   10.9292 C.3     1  UNL1        0.0420
     19 C          64.5729   92.0231   11.6070 C.ar    1  UNL1       -0.0208
     20 C          65.2712   93.1137   10.8501 C.ar    1  UNL1       -0.0042
     21 C          66.3207   93.9437   11.5280 C.ar    1  UNL1       -0.0003
     22 C          66.6720   93.6831   12.9628 C.ar    1  UNL1       -0.0000
     23 C          65.9737   92.5925   13.7197 C.ar    1  UNL1       -0.0003
     24 C          64.9242   91.7625   13.0419 C.ar    1  UNL1       -0.0042
@<TRIPOS>BOND
     1     1     2    2
     2     2     3   am
     3     3    16    1
     4    16    17    1
     5    17    18    1
     6    18    19    1
     7    19    20   ar
     8    20    21   ar
     9    21    22   ar
    10    22    23   ar
    11    23    24   ar
    12     2     4   am
    13     4     5    1
    14     5     6    1
    15     6     7    1
    16     7    11    1
    17    11    12   ar
    18    12    13   ar
    19    13    14   ar
    20    14    15   ar
    21     7     8    1
    22     8     9    1
    23    18    16    1
    24    24    19   ar
    25     9     4    1
    26    15    11   ar
    27     3    10    1
@<TRIPOS>MOLECULE
*****
 24 27 0 0 0
SMALL
GASTEIGER

@<TRIPOS>ATOM
      1 O          63.3097   88.6038   13.1033 O.2     1  UNL1       -0.2526
      2 C          63.2550   89.3149   11.7836 C.2     1  UNL1        0.3039
      3 N          62.5257   88.6964   10.6280 N.am    1  UNL1       -0.2901
      4 N          63.9295   90.6446   11.6197 N.am    1  UNL1       -0.2642
      5 C          64.6588   91.2632   12.7755 C.3     1  UNL1        0.0954
      6 C          65.3334   92.5929   12.6116 C.3     1  UNL1        0.0309
      7 C          65.2787   93.3040   11.2919 C.3     1  UNL1        0.0816
      8 C          64.5494   92.6855   10.1363 C.3     1  UNL1        0.0309
      9 C          63.8749   91.3558   10.3002 C.3     1  UNL1        0.0954
     10 H          62.4899   89.1631    9.7619 H       1  UNL1        0.1509
     11 C          65.9532   94.6337   11.1280 C.ar    1  UNL1        0.2263
     12 N          66.0678   95.6996   12.1773 N.ar    1  UNL1       -0.1113
     13 N          66.8170   96.8556   11.5838 N.ar    1  UNL1       -0.1023
     14 C          67.1656   96.5043   10.1678 C.ar    1  UNL1        0.3056
     15 O          66.6317   95.1311    9.8862 O.2     1  UNL1       -0.4161
     16 C          61.8512   87.3667   10.7919 C.3     1  UNL1        0.0774
     17 C          60.6108   86.5247   10.7440 C.3     1  UNL1        0.0259
     18 C          61.9233   85.9056   11.1236 C.3     1  UNL1        0.0420
     19 C          62.7227   84.7046   11.5343 C.ar    1  UNL1       -0.0208
     20 C          63.4068   83.8676   10.4944 C.ar    1  UNL1       -0.0042
     21 C          64.2062   82.6667   10.9051 C.ar    1  UNL1       -0.0003
     22 C          64.3215   82.3028   12.3557 C.ar    1  UNL1       -0.0000
     23 C          63.6374   83.1398   13.3956 C.ar    1  UNL1       -0.0003
     24 C          62.8380   84.3407   12.9849 C.ar    1  UNL1       -0.0042
@<TRIPOS>BOND
     1     1     2    2
     2     2     3   am
     3     3    16    1
     4    16    17    1
     5    17    18    1
     6    18    19    1
     7    19    20   ar
     8    20    21   ar
     9    21    22   ar
    10    22    23   ar
    11    23    24   ar
    12     2     4   am
    13     4     5    1
    14     5     6    1
    15     6     7    1
    16     7    11    1
    17    11    12   ar
    18    12    13   ar
    19    13    14   ar
    20    14    15   ar
    21     7     8    1
    22     8     9    1
    23    18    16    1
    24    24    19   ar
    25     9     4    1
    26    15    11   ar
    27     3    10    1
