@<TRIPOS>MOLECULE
*****
 23 27 0 0 0
SMALL
GASTEIGER

@<TRIPOS>ATOM
      1 C          63.0202   90.0110   11.3535 C.ar    1  UNL1        0.0004
      2 C          62.3000   89.4573   10.1600 C.ar    1  UNL1       -0.0027
      3 C          62.0032   87.9893   10.0776 C.ar    1  UNL1       -0.0045
      4 C          62.4267   87.0750   11.1888 C.ar    1  UNL1       -0.0202
      5 C          63.1470   87.6287   12.3823 C.ar    1  UNL1        0.0115
      6 C          63.4437   89.0967   12.4647 C.ar    1  UNL1       -0.0015
      7 C          63.4391   86.4917   13.3161 C.2     1  UNL1        0.0858
      8 N          64.0648   86.1313   14.6308 N.2     1  UNL1       -0.1523
      9 N          63.9118   84.6521   14.8269 N.2     1  UNL1       -0.1523
     10 C          63.1916   84.0983   13.6334 C.2     1  UNL1        0.0866
     11 C          62.8994   85.2353   12.6996 C.3     1  UNL1        0.0883
     12 C          62.2736   85.5957   11.3849 C.3     1  UNL1        0.0384
     13 C          62.8274   82.6601   13.4124 C.ar    1  UNL1        0.0227
     14 C          63.2905   81.7979   12.2756 C.ar    1  UNL1        0.0087
     15 C          62.6855   80.4364   12.4500 C.ar    1  UNL1        0.0355
     16 S          61.8484   80.4572   13.6947 S.2     1  UNL1       -0.0859
     17 C          61.9361   81.8315   14.2894 C.ar    1  UNL1        0.0367
     18 C          63.3171   91.4791   11.4358 C.3     1  UNL1        0.1343
     19 C          66.7229   92.5060   12.9884 C.ar    1  UNL1        0.1193
     20 C          65.3316   91.9625   13.1249 C.ar    1  UNL1        0.0983
     21 N          64.7044   91.9466   11.7624 N.ar    1  UNL1       -0.3036
     22 C          65.7082   92.4804   10.7838 C.ar    1  UNL1        0.1789
     23 N          66.9557   92.8261   11.5415 N.ar    1  UNL1       -0.2223
@<TRIPOS>BOND
     1    19    20   ar
     2    20    21   ar
     3    21    18    1
     4    18     1    1
     5     1     2   ar
     6     2     3   ar
     7     3     4   ar
     8     4     5   ar
     9     5     6   ar
    10     5     7    1
    11     7     8    2
    12     8     9    1
    13     9    10    2
    14    10    13    1
    15    13    14   ar
    16    14    15   ar
    17    15    16   ar
    18    16    17   ar
    19    10    11    1
    20    11    12    1
    21    21    22   ar
    22    22    23   ar
    23    23    19   ar
    24     6     1   ar
    25    11     7    1
    26    12     4    1
    27    17    13   ar
@<TRIPOS>MOLECULE
*****
 23 27 0 0 0
SMALL
GASTEIGER

@<TRIPOS>ATOM
      1 C          61.3475   89.9544   10.1899 C.ar    1  UNL1        0.0004
      2 C          61.0321   89.3437   11.5232 C.ar    1  UNL1       -0.0027
      3 C          61.9344   89.5939   12.6950 C.ar    1  UNL1       -0.0045
      4 C          63.1521   90.4548   12.5336 C.ar    1  UNL1       -0.0202
      5 C          63.4675   91.0656   11.2003 C.ar    1  UNL1        0.0115
      6 C          62.5652   90.8154   10.0285 C.ar    1  UNL1       -0.0015
      7 C          64.7290   91.8644   11.3432 C.2     1  UNL1        0.0858
      8 N          65.7036   92.7355   10.6075 N.2     1  UNL1       -0.1523
      9 N          66.7702   93.1569   11.5743 N.2     1  UNL1       -0.1523
     10 C          66.4548   92.5462   12.9075 C.2     1  UNL1        0.0866
     11 C          65.1933   91.7473   12.7647 C.3     1  UNL1        0.0883
     12 C          64.2188   90.8762   13.5005 C.3     1  UNL1        0.0384
     13 C          67.2597   92.7062   14.1631 C.ar    1  UNL1        0.0227
     14 C          67.8572   91.5953   14.9750 C.ar    1  UNL1        0.0087
     15 C          68.5751   92.2077   16.1410 C.ar    1  UNL1        0.0355
     16 S          68.4215   93.6971   16.0497 S.2     1  UNL1       -0.0859
     17 C          67.6085   94.0051   14.8273 C.ar    1  UNL1        0.0367
     18 C          60.4451   89.7043    9.0181 C.3     1  UNL1        0.1343
     19 C          60.5244   85.9312    8.1112 C.ar    1  UNL1        0.1193
     20 C          61.1143   87.1255    8.8007 C.ar    1  UNL1        0.0983
     21 N          60.2305   88.3050    8.5220 N.ar    1  UNL1       -0.3036
     22 C          59.0943   87.8396    7.6603 C.ar    1  UNL1        0.1789
     23 N          59.2759   86.3725    7.4063 N.ar    1  UNL1       -0.2223
@<TRIPOS>BOND
     1    19    20   ar
     2    20    21   ar
     3    21    18    1
     4    18     1    1
     5     1     2   ar
     6     2     3   ar
     7     3     4   ar
     8     4     5   ar
     9     5     6   ar
    10     5     7    1
    11     7     8    2
    12     8     9    1
    13     9    10    2
    14    10    13    1
    15    13    14   ar
    16    14    15   ar
    17    15    16   ar
    18    16    17   ar
    19    10    11    1
    20    11    12    1
    21    21    22   ar
    22    22    23   ar
    23    23    19   ar
    24     6     1   ar
    25    11     7    1
    26    12     4    1
    27    17    13   ar
@<TRIPOS>MOLECULE
*****
 23 27 0 0 0
SMALL
GASTEIGER

@<TRIPOS>ATOM
      1 C          62.6069   86.4100   12.1856 C.ar    1  UNL1        0.0004
      2 C          63.1688   87.7928   12.3341 C.ar    1  UNL1       -0.0027
      3 C          62.7638   88.8737   11.3762 C.ar    1  UNL1       -0.0045
      4 C          61.7970   88.5718   10.2698 C.ar    1  UNL1       -0.0202
      5 C          61.2351   87.1890   10.1213 C.ar    1  UNL1        0.0115
      6 C          61.6400   86.1081   11.0792 C.ar    1  UNL1       -0.0015
      7 C          60.3082   87.1894    8.9420 C.2     1  UNL1        0.0858
      8 N          59.3882   86.3351    8.1213 N.2     1  UNL1       -0.1523
      9 N          58.8085   87.1901    7.0337 N.2     1  UNL1       -0.1523
     10 C          59.3704   88.5729    7.1822 C.2     1  UNL1        0.0866
     11 C          60.2973   88.5725    8.3615 C.3     1  UNL1        0.0883
     12 C          61.2174   89.4269    9.1821 C.3     1  UNL1        0.0384
     13 C          59.0600   89.7496    6.3052 C.ar    1  UNL1        0.0227
     14 C          60.0631   90.6034    5.5876 C.ar    1  UNL1        0.0087
     15 C          59.3149   91.6606    4.8308 C.ar    1  UNL1        0.0355
     16 S          57.8495   91.4601    5.0807 S.2     1  UNL1       -0.0859
     17 C          57.6919   90.2791    5.9919 C.ar    1  UNL1        0.0367
     18 C          63.0118   85.3290   13.1436 C.3     1  UNL1        0.1343
     19 C          63.9115   81.6227   12.4231 C.ar    1  UNL1        0.1193
     20 C          63.2836   82.6739   13.2896 C.ar    1  UNL1        0.0983
     21 N          63.4816   84.0030   12.6231 N.ar    1  UNL1       -0.3036
     22 C          64.2320   83.7732   11.3447 C.ar    1  UNL1        0.1789
     23 N          64.4977   82.3022   11.2211 N.ar    1  UNL1       -0.2223
@<TRIPOS>BOND
     1    19    20   ar
     2    20    21   ar
     3    21    18    1
     4    18     1    1
     5     1     2   ar
     6     2     3   ar
     7     3     4   ar
     8     4     5   ar
     9     5     6   ar
    10     5     7    1
    11     7     8    2
    12     8     9    1
    13     9    10    2
    14    10    13    1
    15    13    14   ar
    16    14    15   ar
    17    15    16   ar
    18    16    17   ar
    19    10    11    1
    20    11    12    1
    21    21    22   ar
    22    22    23   ar
    23    23    19   ar
    24     6     1   ar
    25    11     7    1
    26    12     4    1
    27    17    13   ar
@<TRIPOS>MOLECULE
*****
 23 27 0 0 0
SMALL
GASTEIGER

@<TRIPOS>ATOM
      1 C          63.0230   84.0775   12.7633 C.ar    1  UNL1        0.0004
      2 C          63.7746   83.7850   14.0280 C.ar    1  UNL1       -0.0027
      3 C          64.3777   84.9080   14.8187 C.ar    1  UNL1       -0.0045
      4 C          64.2293   86.3233   14.3446 C.ar    1  UNL1       -0.0202
      5 C          63.4778   86.6158   13.0799 C.ar    1  UNL1        0.0115
      6 C          62.8746   85.4929   12.2892 C.ar    1  UNL1       -0.0015
      7 C          63.4952   88.0999   12.8630 C.2     1  UNL1        0.0858
      8 N          63.0415   89.1979   11.9473 N.2     1  UNL1       -0.1523
      9 N          63.5235   90.5013   12.5120 N.2     1  UNL1       -0.1523
     10 C          64.2751   90.2088   13.7767 C.2     1  UNL1        0.0866
     11 C          64.2576   88.7247   13.9937 C.3     1  UNL1        0.0883
     12 C          64.7113   87.6267   14.9094 C.3     1  UNL1        0.0384
     13 C          64.9292   91.2225   14.6680 C.ar    1  UNL1        0.0227
     14 C          64.4716   91.6147   16.0417 C.ar    1  UNL1        0.0087
     15 C          65.4155   92.6566   16.5649 C.ar    1  UNL1        0.0355
     16 S          66.4564   92.9083   15.5145 S.2     1  UNL1       -0.0859
     17 C          66.1559   92.0220   14.3422 C.ar    1  UNL1        0.0367
     18 C          62.4198   82.9546   11.9725 C.3     1  UNL1        0.1343
     19 C          61.4058   79.8672   14.0949 C.ar    1  UNL1        0.1193
     20 C          61.3181   81.3331   13.7896 C.ar    1  UNL1        0.0983
     21 N          62.2060   81.6157   12.6141 N.ar    1  UNL1       -0.3036
     22 C          62.8425   80.3244   12.1930 C.ar    1  UNL1        0.1789
     23 N          62.3480   79.2437   13.1081 N.ar    1  UNL1       -0.2223
@<TRIPOS>BOND
     1    19    20   ar
     2    20    21   ar
     3    21    18    1
     4    18     1    1
     5     1     2   ar
     6     2     3   ar
     7     3     4   ar
     8     4     5   ar
     9     5     6   ar
    10     5     7    1
    11     7     8    2
    12     8     9    1
    13     9    10    2
    14    10    13    1
    15    13    14   ar
    16    14    15   ar
    17    15    16   ar
    18    16    17   ar
    19    10    11    1
    20    11    12    1
    21    21    22   ar
    22    22    23   ar
    23    23    19   ar
    24     6     1   ar
    25    11     7    1
    26    12     4    1
    27    17    13   ar
@<TRIPOS>MOLECULE
*****
 23 27 0 0 0
SMALL
GASTEIGER

@<TRIPOS>ATOM
      1 C          62.4804   85.9192   11.8893 C.ar    1  UNL1        0.0004
      2 C          62.9798   87.2974   12.2075 C.ar    1  UNL1       -0.0027
      3 C          62.5802   88.4576   11.3448 C.ar    1  UNL1       -0.0045
      4 C          61.6812   88.2396   10.1639 C.ar    1  UNL1       -0.0202
      5 C          61.1819   86.8614    9.8458 C.ar    1  UNL1        0.0115
      6 C          61.5815   85.7012   10.7085 C.ar    1  UNL1       -0.0015
      7 C          60.3146   86.9529    8.6254 C.2     1  UNL1        0.0858
      8 N          59.4700   86.1576    7.6745 N.2     1  UNL1       -0.1523
      9 N          58.9113   87.1008    6.6507 N.2     1  UNL1       -0.1523
     10 C          59.4106   88.4790    6.9689 C.2     1  UNL1        0.0866
     11 C          60.2779   88.3876    8.1892 C.3     1  UNL1        0.0883
     12 C          61.1225   89.1829    9.1401 C.3     1  UNL1        0.0384
     13 C          59.0976   89.7292    6.2013 C.ar    1  UNL1        0.0227
     14 C          60.0995   90.6546    5.5769 C.ar    1  UNL1        0.0087
     15 C          59.3488   91.7708    4.9131 C.ar    1  UNL1        0.0355
     16 S          57.8829   91.5353    5.1273 S.2     1  UNL1       -0.0859
     17 C          57.7277   90.2735    5.9235 C.ar    1  UNL1        0.0367
     18 C          62.8800   84.7590   12.7520 C.3     1  UNL1        0.1343
     19 C          63.7604   85.5984   16.4379 C.ar    1  UNL1        0.1193
     20 C          64.0502   85.6871   14.9688 C.ar    1  UNL1        0.0983
     21 N          62.9809   84.9296   14.2388 N.ar    1  UNL1       -0.3036
     22 C          62.0303   84.3727   15.2568 C.ar    1  UNL1        0.1789
     23 N          62.5120   84.7860   16.6159 N.ar    1  UNL1       -0.2223
@<TRIPOS>BOND
     1    19    20   ar
     2    20    21   ar
     3    21    18    1
     4    18     1    1
     5     1     2   ar
     6     2     3   ar
     7     3     4   ar
     8     4     5   ar
     9     5     6   ar
    10     5     7    1
    11     7     8    2
    12     8     9    1
    13     9    10    2
    14    10    13    1
    15    13    14   ar
    16    14    15   ar
    17    15    16   ar
    18    16    17   ar
    19    10    11    1
    20    11    12    1
    21    21    22   ar
    22    22    23   ar
    23    23    19   ar
    24     6     1   ar
    25    11     7    1
    26    12     4    1
    27    17    13   ar
@<TRIPOS>MOLECULE
*****
 23 27 0 0 0
SMALL
GASTEIGER

@<TRIPOS>ATOM
      1 C          61.4101   87.4903   10.0930 C.ar    1  UNL1        0.0004
      2 C          61.6744   86.6464   11.3045 C.ar    1  UNL1       -0.0027
      3 C          62.5382   87.1734   12.4118 C.ar    1  UNL1       -0.0045
      4 C          63.1377   88.5444   12.3075 C.ar    1  UNL1       -0.0202
      5 C          62.8734   89.3884   11.0960 C.ar    1  UNL1        0.0115
      6 C          62.0096   88.8613    9.9888 C.ar    1  UNL1       -0.0015
      7 C          63.5953   90.6914   11.2724 C.2     1  UNL1        0.0858
      8 N          63.8781   92.0183   10.6326 N.2     1  UNL1       -0.1523
      9 N          64.7633   92.7997   11.5577 N.2     1  UNL1       -0.1523
     10 C          65.0276   91.9557   12.7692 C.2     1  UNL1        0.0866
     11 C          64.3057   90.6527   12.5929 C.3     1  UNL1        0.0883
     12 C          64.0229   89.3258   13.2327 C.3     1  UNL1        0.0384
     13 C          65.8664   92.3461   13.9498 C.ar    1  UNL1        0.0227
     14 C          65.5643   92.0383   15.3865 C.ar    1  UNL1        0.0087
     15 C          66.6659   92.6149   16.2257 C.ar    1  UNL1        0.0355
     16 S          67.6488   93.2791   15.3075 S.2     1  UNL1       -0.0859
     17 C          67.1547   93.1130   13.9010 C.ar    1  UNL1        0.0367
     18 C          60.5462   86.9633    8.9857 C.3     1  UNL1        0.1343
     19 C          62.6289   84.4939    6.8341 C.ar    1  UNL1        0.1193
     20 C          62.5182   85.4786    7.9601 C.ar    1  UNL1        0.0983
     21 N          61.1009   85.9670    8.0112 N.ar    1  UNL1       -0.3036
     22 C          60.3356   85.2841    6.9167 C.ar    1  UNL1        0.1789
     23 N          61.2799   84.3737    6.1891 N.ar    1  UNL1       -0.2223
@<TRIPOS>BOND
     1    19    20   ar
     2    20    21   ar
     3    21    18    1
     4    18     1    1
     5     1     2   ar
     6     2     3   ar
     7     3     4   ar
     8     4     5   ar
     9     5     6   ar
    10     5     7    1
    11     7     8    2
    12     8     9    1
    13     9    10    2
    14    10    13    1
    15    13    14   ar
    16    14    15   ar
    17    15    16   ar
    18    16    17   ar
    19    10    11    1
    20    11    12    1
    21    21    22   ar
    22    22    23   ar
    23    23    19   ar
    24     6     1   ar
    25    11     7    1
    26    12     4    1
    27    17    13   ar
@<TRIPOS>MOLECULE
*****
 23 27 0 0 0
SMALL
GASTEIGER

@<TRIPOS>ATOM
      1 C          63.9427   88.8745   14.2273 C.ar    1  UNL1        0.0004
      2 C          63.5049   89.0211   12.8002 C.ar    1  UNL1       -0.0027
      3 C          63.2101   87.8022   11.9772 C.ar    1  UNL1       -0.0045
      4 C          63.3531   86.4367   12.5814 C.ar    1  UNL1       -0.0202
      5 C          63.7908   86.2902   14.0086 C.ar    1  UNL1        0.0115
      6 C          64.0857   87.5091   14.8315 C.ar    1  UNL1       -0.0015
      7 C          63.8427   84.8258   14.3294 C.2     1  UNL1        0.0858
      8 N          64.1454   83.8302   15.4098 N.2     1  UNL1       -0.1523
      9 N          63.9267   82.4565   14.8486 N.2     1  UNL1       -0.1523
     10 C          63.4889   82.6030   13.4215 C.2     1  UNL1        0.0866
     11 C          63.4370   84.0673   13.1005 C.3     1  UNL1        0.0883
     12 C          63.1344   85.0629   12.0202 C.3     1  UNL1        0.0384
     13 C          63.1607   81.4820   12.4804 C.ar    1  UNL1        0.0227
     14 C          62.5181   80.1785   12.8519 C.ar    1  UNL1        0.0087
     15 C          62.3776   79.3586   11.6037 C.ar    1  UNL1        0.0355
     16 S          62.9334   80.1554   10.4607 S.2     1  UNL1       -0.0859
     17 C          63.4174   81.4677   11.0026 C.ar    1  UNL1        0.0367
     18 C          64.2375   90.0935   15.0504 C.3     1  UNL1        0.1343
     19 C          66.3423   93.2167   14.1119 C.ar    1  UNL1        0.1193
     20 C          65.9091   92.1786   15.1043 C.ar    1  UNL1        0.0983
     21 N          64.9256   91.2713   14.4265 N.ar    1  UNL1       -0.3036
     22 C          64.7509   91.7486   13.0152 C.ar    1  UNL1        0.1789
     23 N          65.6265   92.9509   12.8208 N.ar    1  UNL1       -0.2223
@<TRIPOS>BOND
     1    19    20   ar
     2    20    21   ar
     3    21    18    1
     4    18     1    1
     5     1     2   ar
     6     2     3   ar
     7     3     4   ar
     8     4     5   ar
     9     5     6   ar
    10     5     7    1
    11     7     8    2
    12     8     9    1
    13     9    10    2
    14    10    13    1
    15    13    14   ar
    16    14    15   ar
    17    15    16   ar
    18    16    17   ar
    19    10    11    1
    20    11    12    1
    21    21    22   ar
    22    22    23   ar
    23    23    19   ar
    24     6     1   ar
    25    11     7    1
    26    12     4    1
    27    17    13   ar
@<TRIPOS>MOLECULE
*****
 23 27 0 0 0
SMALL
GASTEIGER

@<TRIPOS>ATOM
      1 C          61.2769   93.9475    1.3690 C.ar    1  UNL1        0.0004
      2 C          62.6280   93.3589    1.6483 C.ar    1  UNL1       -0.0027
      3 C          62.7905   92.3352    2.7325 C.ar    1  UNL1       -0.0045
      4 C          61.6019   91.9000    3.5374 C.ar    1  UNL1       -0.0202
      5 C          60.2508   92.4886    3.2581 C.ar    1  UNL1        0.0115
      6 C          60.0883   93.5124    2.1739 C.ar    1  UNL1       -0.0015
      7 C          59.2699   91.8694    4.2090 C.2     1  UNL1        0.0858
      8 N          57.8286   91.8506    4.6241 N.2     1  UNL1       -0.1523
      9 N          57.6826   90.8676    5.7477 N.2     1  UNL1       -0.1523
     10 C          59.0337   90.2790    6.0270 C.2     1  UNL1        0.0866
     11 C          60.0147   90.8981    5.0761 C.3     1  UNL1        0.0883
     12 C          61.4560   90.9170    4.6611 C.3     1  UNL1        0.0384
     13 C          59.3486   89.2516    7.0736 C.ar    1  UNL1        0.0227
     14 C          58.9778   87.7990    7.0228 C.ar    1  UNL1        0.0087
     15 C          59.4896   87.1460    8.2725 C.ar    1  UNL1        0.0355
     16 S          60.1766   88.1951    9.0957 S.2     1  UNL1       -0.0859
     17 C          60.0894   89.4964    8.3547 C.ar    1  UNL1        0.0367
     18 C          61.1144   94.9713    0.2848 C.3     1  UNL1        0.1343
     19 C          61.8220   93.9032   -3.3790 C.ar    1  UNL1        0.1193
     20 C          62.3012   94.3182   -2.0196 C.ar    1  UNL1        0.0983
     21 N          61.0978   94.5447   -1.1532 N.ar    1  UNL1       -0.3036
     22 C          59.8750   94.2697   -1.9772 C.ar    1  UNL1        0.1789
     23 N          60.3225   93.8732   -3.3529 N.ar    1  UNL1       -0.2223
@<TRIPOS>BOND
     1    19    20   ar
     2    20    21   ar
     3    21    18    1
     4    18     1    1
     5     1     2   ar
     6     2     3   ar
     7     3     4   ar
     8     4     5   ar
     9     5     6   ar
    10     5     7    1
    11     7     8    2
    12     8     9    1
    13     9    10    2
    14    10    13    1
    15    13    14   ar
    16    14    15   ar
    17    15    16   ar
    18    16    17   ar
    19    10    11    1
    20    11    12    1
    21    21    22   ar
    22    22    23   ar
    23    23    19   ar
    24     6     1   ar
    25    11     7    1
    26    12     4    1
    27    17    13   ar
@<TRIPOS>MOLECULE
*****
 23 27 0 0 0
SMALL
GASTEIGER

@<TRIPOS>ATOM
      1 C          63.4334   94.3428   -2.8271 C.ar    1  UNL1        0.0004
      2 C          61.9815   94.3246   -3.2031 C.ar    1  UNL1       -0.0027
      3 C          60.9524   93.8938   -2.2004 C.ar    1  UNL1       -0.0045
      4 C          61.3754   93.4812   -0.8217 C.ar    1  UNL1       -0.0202
      5 C          62.8273   93.4994   -0.4457 C.ar    1  UNL1        0.0115
      6 C          63.8564   93.9302   -1.4484 C.ar    1  UNL1       -0.0015
      7 C          62.9432   93.0419    0.9781 C.2     1  UNL1        0.0858
      8 N          63.9122   92.7704    2.0905 N.2     1  UNL1       -0.1523
      9 N          63.1307   92.3017    3.2819 N.2     1  UNL1       -0.1523
     10 C          61.6787   92.2835    2.9059 C.2     1  UNL1        0.0866
     11 C          61.5628   92.7410    1.4821 C.3     1  UNL1        0.0883
     12 C          60.5938   93.0125    0.3698 C.3     1  UNL1        0.0384
     13 C          60.5422   91.8789    3.7972 C.ar    1  UNL1        0.0227
     14 C          60.6035   90.8605    4.8969 C.ar    1  UNL1        0.0087
     15 C          59.2439   90.7737    5.5247 C.ar    1  UNL1        0.0355
     16 S          58.3423   91.7386    4.8131 S.2     1  UNL1       -0.0859
     17 C          59.1447   92.4216    3.7455 C.ar    1  UNL1        0.0367
     18 C          64.4625   94.7736   -3.8298 C.3     1  UNL1        0.1343
     19 C          65.5904   92.9888   -7.0867 C.ar    1  UNL1        0.1193
     20 C          65.2494   94.2366   -6.3273 C.ar    1  UNL1        0.0983
     21 N          64.8744   93.8408   -4.9299 N.ar    1  UNL1       -0.3036
     22 C          64.9836   92.3484   -4.8257 C.ar    1  UNL1        0.1789
     23 N          65.4261   91.8218   -6.1587 N.ar    1  UNL1       -0.2223
@<TRIPOS>BOND
     1    19    20   ar
     2    20    21   ar
     3    21    18    1
     4    18     1    1
     5     1     2   ar
     6     2     3   ar
     7     3     4   ar
     8     4     5   ar
     9     5     6   ar
    10     5     7    1
    11     7     8    2
    12     8     9    1
    13     9    10    2
    14    10    13    1
    15    13    14   ar
    16    14    15   ar
    17    15    16   ar
    18    16    17   ar
    19    10    11    1
    20    11    12    1
    21    21    22   ar
    22    22    23   ar
    23    23    19   ar
    24     6     1   ar
    25    11     7    1
    26    12     4    1
    27    17    13   ar
