@<TRIPOS>MOLECULE
*****
 35 38 0 0 0
SMALL
GASTEIGER

@<TRIPOS>ATOM
      1 C          62.4584   88.3657   11.5320 C.ar    1  UNL1        0.0544
      2 C          63.3797   88.8013   12.6326 C.ar    1  UNL1       -0.0163
      3 C          63.6208   87.9023   13.8089 C.3     1  UNL1        0.0310
      4 C          64.0601   90.1361   12.5569 C.ar    1  UNL1        0.0308
      5 C          64.9814   90.5718   13.6574 C.ar    1  UNL1        0.0058
      6 C          65.6617   91.9064   13.5817 C.ar    1  UNL1        0.0378
      7 C          65.4206   92.8055   12.4054 C.ar    1  UNL1        0.1517
      8 C          64.4993   92.3698   11.3049 C.ar    1  UNL1        0.0752
      9 C          63.8190   91.0351   11.3806 C.ar    1  UNL1        0.1514
     10 O          62.8976   90.5994   10.2800 O.2     1  UNL1       -0.4212
     11 C          62.2173   89.2647   10.3557 C.ar    1  UNL1        0.3417
     12 O          61.2959   88.8289    9.2551 O.2     1  UNL1       -0.2448
     13 C          61.7781   87.0309   11.6077 C.3     1  UNL1        0.0612
     14 C          63.6684   83.5415   11.6268 C.ar    1  UNL1        0.0928
     15 C          63.9019   83.3375   10.1592 C.ar    1  UNL1        0.0181
     16 C          63.4274   84.3648    9.1744 C.ar    1  UNL1        0.0011
     17 C          62.7195   85.5959    9.6572 C.ar    1  UNL1       -0.0016
     18 C          62.4860   85.7998   11.1248 C.ar    1  UNL1        0.0111
     19 C          62.9604   84.7727   12.1096 C.ar    1  UNL1        0.1509
     20 F          62.7270   84.9766   13.5772 F       1  UNL1       -0.2031
     21 N          64.1429   82.5143   12.6116 N.pl3   1  UNL1       -0.2032
     22 H          65.0861   82.2321   12.6126 H       1  UNL1        0.1749
     23 S          63.1803   81.9172   13.5947 S.O2    1  UNL1        0.1100
     24 O          63.9812   82.4895   14.7265 O.2     1  UNL1       -0.1381
     25 O          62.3794   81.3448   12.4630 O.2     1  UNL1       -0.1381
     26 C          60.8595   80.8752   14.1222 C.3     1  UNL1        0.1116
     27 N          62.2176   81.3199   14.5780 N.3     1  UNL1       -0.1651
     28 H          62.6761   80.5019   14.9792 H       1  UNL1        0.1502
     29 O          66.1010   94.1402   12.3297 O.3     1  UNL1       -0.4222
     30 C          66.4497   94.7296   10.9953 C.ar    1  UNL1        0.3246
     31 N          65.6999   95.9239   10.4838 N.ar    1  UNL1       -0.1924
     32 C          66.0488   96.5133    9.1492 C.ar    1  UNL1        0.1053
     33 C          67.1473   95.9085    8.3262 C.ar    1  UNL1        0.0416
     34 C          67.8971   94.7143    8.8377 C.ar    1  UNL1        0.1053
     35 N          67.5483   94.1248   10.1722 N.ar    1  UNL1       -0.1924
@<TRIPOS>BOND
     1    26    27    1
     2    27    23    1
     3    23    24    2
     4    23    25    2
     5    23    21    1
     6    21    14    1
     7    14    15   ar
     8    15    16   ar
     9    16    17   ar
    10    17    18   ar
    11    18    13    1
    12    13     1    1
    13     1     2   ar
    14     2     3    1
    15     2     4   ar
    16     4     5   ar
    17     5     6   ar
    18     6     7   ar
    19     7    29    1
    20    29    30    1
    21    30    31   ar
    22    31    32   ar
    23    32    33   ar
    24    33    34   ar
    25    34    35   ar
    26     7     8   ar
    27     8     9   ar
    28     9    10   ar
    29    10    11   ar
    30    11    12    2
    31    18    19   ar
    32    19    20    1
    33    19    14   ar
    34    11     1   ar
    35     9     4   ar
    36    35    30   ar
    37    27    28    1
    38    21    22    1
@<TRIPOS>MOLECULE
*****
 35 38 0 0 0
SMALL
GASTEIGER

@<TRIPOS>ATOM
      1 C          62.6903   87.7554   12.0598 C.ar    1  UNL1        0.0544
      2 C          62.6654   88.8728   11.0595 C.ar    1  UNL1       -0.0163
      3 C          61.8722   88.7294    9.7945 C.3     1  UNL1        0.0310
      4 C          63.4336   90.1337   11.3242 C.ar    1  UNL1        0.0308
      5 C          63.4087   91.2511   10.3239 C.ar    1  UNL1        0.0058
      6 C          64.1769   92.5119   10.5886 C.ar    1  UNL1        0.0378
      7 C          64.9701   92.6553   11.8536 C.ar    1  UNL1        0.1517
      8 C          64.9951   91.5379   12.8539 C.ar    1  UNL1        0.0752
      9 C          64.2268   90.2771   12.5892 C.ar    1  UNL1        0.1514
     10 O          64.2518   89.1595   13.5896 O.2     1  UNL1       -0.4212
     11 C          63.4835   87.8987   13.3249 C.ar    1  UNL1        0.3417
     12 O          63.5084   86.7812   14.3252 O.2     1  UNL1       -0.2448
     13 C          61.9220   86.4945   11.7952 C.3     1  UNL1        0.0612
     14 C          63.7544   82.9755   11.6996 C.ar    1  UNL1        0.0928
     15 C          64.0493   82.8491   10.2343 C.ar    1  UNL1        0.0181
     16 C          63.6351   83.9380    9.2893 C.ar    1  UNL1        0.0011
     17 C          62.9260   85.1530    9.8096 C.ar    1  UNL1       -0.0016
     18 C          62.6311   85.2794   11.2749 C.ar    1  UNL1        0.0111
     19 C          63.0453   84.1906   12.2199 C.ar    1  UNL1        0.1509
     20 F          62.7504   84.3170   13.6852 F       1  UNL1       -0.2031
     21 N          64.1685   81.8867   12.6446 N.pl3   1  UNL1       -0.2032
     22 H          65.1038   81.5797   12.6623 H       1  UNL1        0.1749
     23 S          63.1578   81.2658   13.5626 S.O2    1  UNL1        0.1100
     24 O          63.8810   81.8376   14.7457 O.2     1  UNL1       -0.1381
     25 O          62.4345   80.6940   12.3794 O.2     1  UNL1       -0.1381
     26 C          60.6886   80.6925   14.1326 C.3     1  UNL1        0.1116
     27 N          62.1469   80.6448   14.4806 N.3     1  UNL1       -0.1651
     28 H          62.3962   79.6598   14.5700 H       1  UNL1        0.1502
     29 O          65.7384   93.9162   12.1183 O.3     1  UNL1       -0.4222
     30 C          66.3351   94.6845   10.9766 C.ar    1  UNL1        0.3246
     31 N          67.3840   94.0498   10.1123 N.ar    1  UNL1       -0.1924
     32 C          67.9807   94.8182    8.9705 C.ar    1  UNL1        0.1053
     33 C          67.5285   96.2212    8.6931 C.ar    1  UNL1        0.0416
     34 C          66.4796   96.8559    9.5573 C.ar    1  UNL1        0.1053
     35 N          65.8829   96.0876   10.6991 N.ar    1  UNL1       -0.1924
@<TRIPOS>BOND
     1    26    27    1
     2    27    23    1
     3    23    24    2
     4    23    25    2
     5    23    21    1
     6    21    14    1
     7    14    15   ar
     8    15    16   ar
     9    16    17   ar
    10    17    18   ar
    11    18    13    1
    12    13     1    1
    13     1     2   ar
    14     2     3    1
    15     2     4   ar
    16     4     5   ar
    17     5     6   ar
    18     6     7   ar
    19     7    29    1
    20    29    30    1
    21    30    31   ar
    22    31    32   ar
    23    32    33   ar
    24    33    34   ar
    25    34    35   ar
    26     7     8   ar
    27     8     9   ar
    28     9    10   ar
    29    10    11   ar
    30    11    12    2
    31    18    19   ar
    32    19    20    1
    33    19    14   ar
    34    11     1   ar
    35     9     4   ar
    36    35    30   ar
    37    27    28    1
    38    21    22    1
@<TRIPOS>MOLECULE
*****
 35 38 0 0 0
SMALL
GASTEIGER

@<TRIPOS>ATOM
      1 C          63.3909   89.4440   13.1024 C.ar    1  UNL1        0.0544
      2 C          63.7622   88.8461   14.4269 C.ar    1  UNL1       -0.0163
      3 C          64.0876   89.7385   15.5879 C.3     1  UNL1        0.0310
      4 C          63.8081   87.3557   14.5907 C.ar    1  UNL1        0.0308
      5 C          64.1794   86.7578   15.9153 C.ar    1  UNL1        0.0058
      6 C          64.2253   85.2675   16.0789 C.ar    1  UNL1        0.0378
      7 C          63.8999   84.3751   14.9180 C.ar    1  UNL1        0.1517
      8 C          63.5286   84.9730   13.5934 C.ar    1  UNL1        0.0752
      9 C          63.4827   86.4633   13.4298 C.ar    1  UNL1        0.1514
     10 O          63.1113   87.0613   12.1051 O.2     1  UNL1       -0.4212
     11 C          63.0655   88.5516   11.9414 C.ar    1  UNL1        0.3417
     12 O          62.6941   89.1496   10.6168 O.2     1  UNL1       -0.2448
     13 C          63.3450   90.9344   12.9386 C.3     1  UNL1        0.0612
     14 C          66.3137   92.8957   11.1808 C.ar    1  UNL1        0.0928
     15 C          67.1587   93.2537   12.3673 C.ar    1  UNL1        0.0181
     16 C          66.7325   92.8385   13.7443 C.ar    1  UNL1        0.0011
     17 C          65.4613   92.0654   13.9347 C.ar    1  UNL1       -0.0016
     18 C          64.6162   91.7075   12.7482 C.ar    1  UNL1        0.0111
     19 C          65.0424   92.1226   11.3713 C.ar    1  UNL1        0.1509
     20 F          64.1973   91.7647   10.1848 F       1  UNL1       -0.2031
     21 N          66.7398   93.3109    9.8038 N.pl3   1  UNL1       -0.2032
     22 H          66.6404   92.6871    9.0487 H       1  UNL1        0.1749
     23 S          67.3175   94.6765    9.5774 S.O2    1  UNL1        0.1100
     24 O          68.6780   94.0711    9.3975 O.2     1  UNL1       -0.1381
     25 O          65.9570   95.2819    9.7574 O.2     1  UNL1       -0.1381
     26 C          67.4607   96.8533    8.1663 C.3     1  UNL1        0.1116
     27 N          67.8952   96.0422    9.3510 N.3     1  UNL1       -0.1651
     28 H          67.6795   96.5945   10.1810 H       1  UNL1        0.1502
     29 O          63.9458   82.8847   15.0817 O.3     1  UNL1       -0.4222
     30 C          63.5369   81.9926   13.9473 C.ar    1  UNL1        0.3246
     31 N          63.9226   82.3434   12.5408 N.ar    1  UNL1       -0.1924
     32 C          63.5138   81.4512   11.4063 C.ar    1  UNL1        0.1053
     33 C          62.7192   80.2084   11.6784 C.ar    1  UNL1        0.0416
     34 C          62.3335   79.8577   13.0848 C.ar    1  UNL1        0.1053
     35 N          62.7423   80.7497   14.2193 N.ar    1  UNL1       -0.1924
@<TRIPOS>BOND
     1    26    27    1
     2    27    23    1
     3    23    24    2
     4    23    25    2
     5    23    21    1
     6    21    14    1
     7    14    15   ar
     8    15    16   ar
     9    16    17   ar
    10    17    18   ar
    11    18    13    1
    12    13     1    1
    13     1     2   ar
    14     2     3    1
    15     2     4   ar
    16     4     5   ar
    17     5     6   ar
    18     6     7   ar
    19     7    29    1
    20    29    30    1
    21    30    31   ar
    22    31    32   ar
    23    32    33   ar
    24    33    34   ar
    25    34    35   ar
    26     7     8   ar
    27     8     9   ar
    28     9    10   ar
    29    10    11   ar
    30    11    12    2
    31    18    19   ar
    32    19    20    1
    33    19    14   ar
    34    11     1   ar
    35     9     4   ar
    36    35    30   ar
    37    27    28    1
    38    21    22    1
@<TRIPOS>MOLECULE
*****
 35 38 0 0 0
SMALL
GASTEIGER

@<TRIPOS>ATOM
      1 C          62.5734   87.0802   11.9901 C.ar    1  UNL1        0.0544
      2 C          62.5778   88.2897   11.1030 C.ar    1  UNL1       -0.0163
      3 C          61.8642   88.2551    9.7841 C.3     1  UNL1        0.0310
      4 C          63.2959   89.5340   11.5348 C.ar    1  UNL1        0.0308
      5 C          63.3003   90.7435   10.6476 C.ar    1  UNL1        0.0058
      6 C          64.0184   91.9876   11.0794 C.ar    1  UNL1        0.0378
      7 C          64.7320   92.0222   12.3983 C.ar    1  UNL1        0.1517
      8 C          64.7276   90.8127   13.2855 C.ar    1  UNL1        0.0752
      9 C          64.0096   89.5686   12.8537 C.ar    1  UNL1        0.1514
     10 O          64.0051   88.3590   13.7408 O.2     1  UNL1       -0.4212
     11 C          63.2871   87.1149   13.3090 C.ar    1  UNL1        0.3417
     12 O          63.2827   85.9053   14.1962 O.2     1  UNL1       -0.2448
     13 C          61.8554   85.8360   11.5584 C.3     1  UNL1        0.0612
     14 C          63.5517   82.2655   11.9100 C.ar    1  UNL1        0.0928
     15 C          64.1913   82.1214   10.5609 C.ar    1  UNL1        0.0181
     16 C          64.0522   83.2155    9.5442 C.ar    1  UNL1        0.0011
     17 C          63.2735   84.4537    9.8767 C.ar    1  UNL1       -0.0016
     18 C          62.6340   84.5978   11.2259 C.ar    1  UNL1        0.0111
     19 C          62.7731   83.5038   12.2425 C.ar    1  UNL1        0.1509
     20 F          62.1335   83.6479   13.5917 F       1  UNL1       -0.2031
     21 N          63.6908   81.1714   12.9267 N.pl3   1  UNL1       -0.2032
     22 H          64.5788   80.9422   13.2848 H       1  UNL1        0.1749
     23 S          62.4770   80.4266   13.3977 S.O2    1  UNL1        0.1100
     24 O          62.4948   81.2075   14.6783 O.2     1  UNL1       -0.1381
     25 O          62.4593   79.6457   12.1172 O.2     1  UNL1       -0.1381
     26 C          60.0014   80.4283   14.1859 C.3     1  UNL1        0.1116
     27 N          61.2632   79.6818   13.8687 N.3     1  UNL1       -0.1651
     28 H          61.0307   79.0068   13.1401 H       1  UNL1        0.1502
     29 O          65.4501   93.2665   12.8301 O.3     1  UNL1       -0.4222
     30 C          66.6953   93.1640   13.6601 C.ar    1  UNL1        0.3246
     31 N          66.7743   93.8658   14.9835 N.ar    1  UNL1       -0.1924
     32 C          68.0196   93.7633   15.8135 C.ar    1  UNL1        0.1053
     33 C          69.1857   92.9591   15.3202 C.ar    1  UNL1        0.0416
     34 C          69.1066   92.2573   13.9969 C.ar    1  UNL1        0.1053
     35 N          67.8614   92.3597   13.1668 N.ar    1  UNL1       -0.1924
@<TRIPOS>BOND
     1    26    27    1
     2    27    23    1
     3    23    24    2
     4    23    25    2
     5    23    21    1
     6    21    14    1
     7    14    15   ar
     8    15    16   ar
     9    16    17   ar
    10    17    18   ar
    11    18    13    1
    12    13     1    1
    13     1     2   ar
    14     2     3    1
    15     2     4   ar
    16     4     5   ar
    17     5     6   ar
    18     6     7   ar
    19     7    29    1
    20    29    30    1
    21    30    31   ar
    22    31    32   ar
    23    32    33   ar
    24    33    34   ar
    25    34    35   ar
    26     7     8   ar
    27     8     9   ar
    28     9    10   ar
    29    10    11   ar
    30    11    12    2
    31    18    19   ar
    32    19    20    1
    33    19    14   ar
    34    11     1   ar
    35     9     4   ar
    36    35    30   ar
    37    27    28    1
    38    21    22    1
@<TRIPOS>MOLECULE
*****
 35 38 0 0 0
SMALL
GASTEIGER

@<TRIPOS>ATOM
      1 C          62.2956   87.4801   11.4822 C.ar    1  UNL1        0.0544
      2 C          63.1429   87.6729   12.7049 C.ar    1  UNL1       -0.0163
      3 C          63.3748   86.5272   13.6449 C.3     1  UNL1        0.0310
      4 C          63.7582   89.0114   12.9876 C.ar    1  UNL1        0.0308
      5 C          64.6055   89.2041   14.2103 C.ar    1  UNL1        0.0058
      6 C          65.2208   90.5425   14.4929 C.ar    1  UNL1        0.0378
      7 C          64.9889   91.6882   13.5529 C.ar    1  UNL1        0.1517
      8 C          64.1416   91.4955   12.3302 C.ar    1  UNL1        0.0752
      9 C          63.5263   90.1570   12.0476 C.ar    1  UNL1        0.1514
     10 O          62.6790   89.9642   10.8249 O.2     1  UNL1       -0.4212
     11 C          62.0636   88.6258   10.5422 C.ar    1  UNL1        0.3417
     12 O          61.2163   88.4330    9.3195 O.2     1  UNL1       -0.2448
     13 C          61.6802   86.1416   11.1996 C.3     1  UNL1        0.0612
     14 C          63.7442   82.7792   11.6284 C.ar    1  UNL1        0.0928
     15 C          64.3064   82.6136   10.2477 C.ar    1  UNL1        0.0181
     16 C          63.9932   83.6241    9.1842 C.ar    1  UNL1        0.0011
     17 C          63.1178   84.8001    9.5015 C.ar    1  UNL1       -0.0016
     18 C          62.5556   84.9656   10.8822 C.ar    1  UNL1        0.0111
     19 C          62.8688   83.9553   11.9457 C.ar    1  UNL1        0.1509
     20 F          62.3065   84.1208   13.3265 F       1  UNL1       -0.2031
     21 N          64.0574   81.7688   12.6919 N.pl3   1  UNL1       -0.2032
     22 H          64.9615   81.3843   12.7546 H       1  UNL1        0.1749
     23 S          62.9930   81.3442   13.6597 S.O2    1  UNL1        0.1100
     24 O          63.7152   82.0549   14.7657 O.2     1  UNL1       -0.1381
     25 O          62.2708   80.6335   12.5537 O.2     1  UNL1       -0.1381
     26 C          60.5320   80.6656   14.1426 C.3     1  UNL1        0.1116
     27 N          61.9285   80.9196   14.6276 N.3     1  UNL1       -0.1651
     28 H          62.2520   80.0543   15.0601 H       1  UNL1        0.1502
     29 O          65.6043   93.0267   13.8356 O.3     1  UNL1       -0.4222
     30 C          67.0027   93.1111   14.3713 C.ar    1  UNL1        0.3246
     31 N          68.1146   92.3743   13.6850 N.ar    1  UNL1       -0.1924
     32 C          69.5131   92.4588   14.2208 C.ar    1  UNL1        0.1053
     33 C          69.7998   93.2800   15.4428 C.ar    1  UNL1        0.0416
     34 C          68.6880   94.0168   16.1291 C.ar    1  UNL1        0.1053
     35 N          67.2895   93.9324   15.5934 N.ar    1  UNL1       -0.1924
@<TRIPOS>BOND
     1    26    27    1
     2    27    23    1
     3    23    24    2
     4    23    25    2
     5    23    21    1
     6    21    14    1
     7    14    15   ar
     8    15    16   ar
     9    16    17   ar
    10    17    18   ar
    11    18    13    1
    12    13     1    1
    13     1     2   ar
    14     2     3    1
    15     2     4   ar
    16     4     5   ar
    17     5     6   ar
    18     6     7   ar
    19     7    29    1
    20    29    30    1
    21    30    31   ar
    22    31    32   ar
    23    32    33   ar
    24    33    34   ar
    25    34    35   ar
    26     7     8   ar
    27     8     9   ar
    28     9    10   ar
    29    10    11   ar
    30    11    12    2
    31    18    19   ar
    32    19    20    1
    33    19    14   ar
    34    11     1   ar
    35     9     4   ar
    36    35    30   ar
    37    27    28    1
    38    21    22    1
@<TRIPOS>MOLECULE
*****
 35 38 0 0 0
SMALL
GASTEIGER

@<TRIPOS>ATOM
      1 C          63.3057   89.4910   13.0627 C.ar    1  UNL1        0.0544
      2 C          62.8152   88.9543   11.7507 C.ar    1  UNL1       -0.0163
      3 C          62.3212   89.8959   10.6927 C.3     1  UNL1        0.0310
      4 C          62.8188   87.4759   11.4966 C.ar    1  UNL1        0.0308
      5 C          62.3283   86.9392   10.1846 C.ar    1  UNL1        0.0058
      6 C          62.3319   85.4609    9.9306 C.ar    1  UNL1        0.0378
      7 C          62.8259   84.5193   10.9886 C.ar    1  UNL1        0.1517
      8 C          63.3164   85.0560   12.3006 C.ar    1  UNL1        0.0752
      9 C          63.3128   86.5343   12.5546 C.ar    1  UNL1        0.1514
     10 O          63.8033   87.0711   13.8667 O.2     1  UNL1       -0.4212
     11 C          63.7997   88.5494   14.1207 C.ar    1  UNL1        0.3417
     12 O          64.2902   89.0861   15.4327 O.2     1  UNL1       -0.2448
     13 C          63.3021   90.9694   13.3168 C.3     1  UNL1        0.0612
     14 C          66.5608   93.0517   12.4252 C.ar    1  UNL1        0.0928
     15 C          67.1931   93.1822   13.7792 C.ar    1  UNL1        0.0181
     16 C          66.5283   92.5751   14.9791 C.ar    1  UNL1        0.0011
     17 C          65.2313   91.8375   14.8249 C.ar    1  UNL1       -0.0016
     18 C          64.5991   91.7070   13.4709 C.ar    1  UNL1        0.0111
     19 C          65.2638   92.3140   12.2711 C.ar    1  UNL1        0.1509
     20 F          64.6316   92.1835   10.9171 F       1  UNL1       -0.2031
     21 N          67.2256   93.6587   11.2254 N.pl3   1  UNL1       -0.2032
     22 H          68.1321   93.3737   10.9680 H       1  UNL1        0.1749
     23 S          66.5091   94.7000   10.4178 S.O2    1  UNL1        0.1100
     24 O          66.2071   95.4651   11.6721 O.2     1  UNL1       -0.1381
     25 O          66.8111   93.9349    9.1634 O.2     1  UNL1       -0.1381
     26 C          65.0610   96.8540   10.3005 C.3     1  UNL1        0.1116
     27 N          65.7926   95.7413    9.6100 N.3     1  UNL1       -0.1651
     28 H          66.4899   96.1773    9.0066 H       1  UNL1        0.1502
     29 O          62.8295   83.0409   10.7346 O.3     1  UNL1       -0.4222
     30 C          62.5987   82.0848   11.8670 C.ar    1  UNL1        0.3246
     31 N          62.1666   82.6003   13.2077 N.ar    1  UNL1       -0.1924
     32 C          61.9358   81.6441   14.3402 C.ar    1  UNL1        0.1053
     33 C          62.1372   80.1724   14.1319 C.ar    1  UNL1        0.0416
     34 C          62.5693   79.6568   12.7912 C.ar    1  UNL1        0.1053
     35 N          62.8001   80.6130   11.6588 N.ar    1  UNL1       -0.1924
@<TRIPOS>BOND
     1    26    27    1
     2    27    23    1
     3    23    24    2
     4    23    25    2
     5    23    21    1
     6    21    14    1
     7    14    15   ar
     8    15    16   ar
     9    16    17   ar
    10    17    18   ar
    11    18    13    1
    12    13     1    1
    13     1     2   ar
    14     2     3    1
    15     2     4   ar
    16     4     5   ar
    17     5     6   ar
    18     6     7   ar
    19     7    29    1
    20    29    30    1
    21    30    31   ar
    22    31    32   ar
    23    32    33   ar
    24    33    34   ar
    25    34    35   ar
    26     7     8   ar
    27     8     9   ar
    28     9    10   ar
    29    10    11   ar
    30    11    12    2
    31    18    19   ar
    32    19    20    1
    33    19    14   ar
    34    11     1   ar
    35     9     4   ar
    36    35    30   ar
    37    27    28    1
    38    21    22    1
@<TRIPOS>MOLECULE
*****
 35 38 0 0 0
SMALL
GASTEIGER

@<TRIPOS>ATOM
      1 C          63.1203   89.3221   12.6305 C.ar    1  UNL1        0.0544
      2 C          62.5873   88.6446   11.4030 C.ar    1  UNL1       -0.0163
      3 C          61.9492   89.4569   10.3153 C.3     1  UNL1        0.0310
      4 C          62.6924   87.1548   11.2631 C.ar    1  UNL1        0.0308
      5 C          62.1594   86.4773   10.0355 C.ar    1  UNL1        0.0058
      6 C          62.2645   84.9876    9.8957 C.ar    1  UNL1        0.0378
      7 C          62.9026   84.1754   10.9834 C.ar    1  UNL1        0.1517
      8 C          63.4356   84.8528   12.2109 C.ar    1  UNL1        0.0752
      9 C          63.3305   86.3426   12.3507 C.ar    1  UNL1        0.1514
     10 O          63.8635   87.0201   13.5783 O.2     1  UNL1       -0.4212
     11 C          63.7584   88.5098   13.7182 C.ar    1  UNL1        0.3417
     12 O          64.2914   89.1874   14.9458 O.2     1  UNL1       -0.2448
     13 C          63.0152   90.8119   12.7704 C.3     1  UNL1        0.0612
     14 C          66.2193   93.1536   12.7560 C.ar    1  UNL1        0.0928
     15 C          66.3463   93.4513   11.2913 C.ar    1  UNL1        0.0181
     16 C          65.3628   92.8691   10.3196 C.ar    1  UNL1        0.0011
     17 C          64.2525   91.9894   10.8127 C.ar    1  UNL1       -0.0016
     18 C          64.1255   91.6917   12.2774 C.ar    1  UNL1        0.0111
     19 C          65.1089   92.2738   13.2490 C.ar    1  UNL1        0.1509
     20 F          64.9819   91.9761   14.7137 F       1  UNL1       -0.2031
     21 N          67.2027   93.7357   13.7276 N.pl3   1  UNL1       -0.2032
     22 H          67.2567   94.7112   13.8484 H       1  UNL1        0.1749
     23 S          68.1038   92.8313   14.5151 S.O2    1  UNL1        0.1100
     24 O          68.4612   92.0936   13.2590 O.2     1  UNL1       -0.1381
     25 O          67.7463   93.5691   15.7713 O.2     1  UNL1       -0.1381
     26 C          68.9469   91.9306   16.8016 C.3     1  UNL1        0.1116
     27 N          69.0049   91.9270   15.3027 N.3     1  UNL1       -0.1651
     28 H          68.8009   90.9738   15.0024 H       1  UNL1        0.1502
     29 O          63.0076   82.6855   10.8434 O.3     1  UNL1       -0.4222
     30 C          62.6229   81.7958   11.9881 C.ar    1  UNL1        0.3246
     31 N          62.0545   82.3906   13.2423 N.ar    1  UNL1       -0.1924
     32 C          61.6698   81.5008   14.3870 C.ar    1  UNL1        0.1053
     33 C          61.8535   80.0161   14.2774 C.ar    1  UNL1        0.0416
     34 C          62.4219   79.4213   13.0232 C.ar    1  UNL1        0.1053
     35 N          62.8067   80.3110   11.8786 N.ar    1  UNL1       -0.1924
@<TRIPOS>BOND
     1    26    27    1
     2    27    23    1
     3    23    24    2
     4    23    25    2
     5    23    21    1
     6    21    14    1
     7    14    15   ar
     8    15    16   ar
     9    16    17   ar
    10    17    18   ar
    11    18    13    1
    12    13     1    1
    13     1     2   ar
    14     2     3    1
    15     2     4   ar
    16     4     5   ar
    17     5     6   ar
    18     6     7   ar
    19     7    29    1
    20    29    30    1
    21    30    31   ar
    22    31    32   ar
    23    32    33   ar
    24    33    34   ar
    25    34    35   ar
    26     7     8   ar
    27     8     9   ar
    28     9    10   ar
    29    10    11   ar
    30    11    12    2
    31    18    19   ar
    32    19    20    1
    33    19    14   ar
    34    11     1   ar
    35     9     4   ar
    36    35    30   ar
    37    27    28    1
    38    21    22    1
