@<TRIPOS>MOLECULE
*****
 30 35 0 0 0
SMALL
GASTEIGER

@<TRIPOS>ATOM
      1 C          66.4761   93.5981   13.2793 C.ar    1  UNL1        0.2409
      2 N          66.4289   94.2776   11.9429 N.ar    1  UNL1       -0.1111
      3 N          65.4968   93.5011   11.0607 N.ar    1  UNL1       -0.1270
      4 C          64.9679   92.3416   11.8520 C.ar    1  UNL1        0.1744
      5 C          64.0134   91.2390   11.5010 C.ar    1  UNL1        0.0758
      6 C          63.6642   90.1964   12.5213 C.ar    1  UNL1        0.1390
      7 C          64.2695   90.2564   13.8924 C.ar    1  UNL1        0.0292
      8 C          65.2240   91.3589   14.2433 C.ar    1  UNL1        0.0828
      9 N          65.5732   92.4016   13.2231 N.ar    1  UNL1       -0.2599
     10 C          63.9202   89.2136   14.9127 C.3     1  UNL1        0.0268
     11 C          63.9310   87.7834   15.3646 C.3     1  UNL1        0.0048
     12 C          63.3045   88.8380   16.2279 C.3     1  UNL1        0.0048
     13 N          67.2843   94.0378   14.4639 N.pl3   1  UNL1       -0.1872
     14 H          67.3580   94.9951   14.6816 H       1  UNL1        0.1764
     15 C          68.6763   92.0001   16.1699 C.3     1  UNL1        0.1997
     16 S          67.9803   93.0189   15.3170 S.O2    1  UNL1        0.0580
     17 O          68.9283   92.7250   14.1923 O.2     1  UNL1       -0.1544
     18 O          67.0323   93.3129   16.4416 O.2     1  UNL1       -0.1544
     19 O          62.7096   89.0937   12.1704 O.3     1  UNL1       -0.4756
     20 C          61.4968   89.3881   11.3385 C.3     1  UNL1        0.2051
     21 C          61.0884   88.4434   10.2472 C.3     1  UNL1        0.0404
     22 C          61.5639   87.0210   10.2697 C.3     1  UNL1        0.0036
     23 C          61.1555   86.0763    9.1785 C.3     1  UNL1        0.0001
     24 C          60.2716   86.5541    8.0647 C.3     1  UNL1        0.0000
     25 C          59.7961   87.9765    8.0422 C.3     1  UNL1        0.0001
     26 C          61.6629   87.6403   10.7275 C.3     1  UNL1        0.0000
     27 C          62.4478   86.5432   11.3835 C.3     1  UNL1        0.0001
     28 C          62.0394   85.5986   10.2923 C.3     1  UNL1        0.0000
     29 C          61.9723   87.9656   11.3610 C.3     1  UNL1        0.0036
     30 C          60.2045   88.9212    9.1334 C.3     1  UNL1        0.0036
@<TRIPOS>BOND
     1    15    16    1
     2    16    17    2
     3    16    18    2
     4    16    13    1
     5    13     1    1
     6     1     2   ar
     7     2     3   ar
     8     3     4   ar
     9     4     5   ar
    10     5     6   ar
    11     6    19    1
    12    19    20    1
    13    20    21    1
    14    21    22    1
    15    22    23    1
    16    23    24    1
    17    24    25    1
    18    25    26    1
    19    26    27    1
    20    27    28    1
    21    27    29    1
    22    25    30    1
    23     6     7   ar
    24     7    10    1
    25    10    11    1
    26    11    12    1
    27     7     8   ar
    28     8     9   ar
    29     9     1   ar
    30     9     4   ar
    31    29    21    1
    32    12    10    1
    33    30    21    1
    34    28    23    1
    35    13    14    1
@<TRIPOS>MOLECULE
*****
 30 35 0 0 0
SMALL
GASTEIGER

@<TRIPOS>ATOM
      1 C          66.4917   93.5172   13.2590 C.ar    1  UNL1        0.2409
      2 N          66.4820   94.0744   11.8664 N.ar    1  UNL1       -0.1111
      3 N          65.5151   93.2679   11.0512 N.ar    1  UNL1       -0.1270
      4 C          64.9272   92.2122   11.9400 C.ar    1  UNL1        0.1744
      5 C          63.9203   91.1305   11.6831 C.ar    1  UNL1        0.0758
      6 C          63.5170   90.2030   12.7907 C.ar    1  UNL1        0.1390
      7 C          64.1205   90.3571   14.1553 C.ar    1  UNL1        0.0292
      8 C          65.1274   91.4388   14.4122 C.ar    1  UNL1        0.0828
      9 N          65.5308   92.3663   13.3045 N.ar    1  UNL1       -0.2599
     10 C          63.7171   89.4295   15.2630 C.3     1  UNL1        0.0268
     11 C          63.6445   88.0454   15.8366 C.3     1  UNL1        0.0048
     12 C          63.0911   89.2069   16.6077 C.3     1  UNL1        0.0048
     13 N          67.3173   94.0223   14.4050 N.pl3   1  UNL1       -0.1872
     14 H          67.3850   94.9897   14.5742 H       1  UNL1        0.1764
     15 C          68.7624   92.0841   16.1814 C.3     1  UNL1        0.1997
     16 S          68.0399   93.0531   15.2932 S.O2    1  UNL1        0.0580
     17 O          67.1359   93.4226   16.4317 O.2     1  UNL1       -0.1544
     18 O          68.9440   92.6838   14.1547 O.2     1  UNL1       -0.1544
     19 O          62.5100   89.1212   12.5339 O.3     1  UNL1       -0.4756
     20 C          61.6194   89.1963   11.3292 C.3     1  UNL1        0.2051
     21 C          61.5482   88.0403   10.3760 C.3     1  UNL1        0.0404
     22 C          60.6899   88.1315    9.1493 C.3     1  UNL1        0.0036
     23 C          60.6187   86.9756    8.1961 C.3     1  UNL1        0.0001
     24 C          61.4059   85.7283    8.4696 C.3     1  UNL1        0.0000
     25 C          62.2642   85.6371    9.6963 C.3     1  UNL1        0.0001
     26 C          60.8527   88.6060    9.7419 C.3     1  UNL1        0.0000
     27 C          59.9027   89.3787    8.8757 C.3     1  UNL1        0.0001
     28 C          59.8315   88.2228    7.9225 C.3     1  UNL1        0.0000
     29 C          60.7610   89.2875   10.1025 C.3     1  UNL1        0.0036
     30 C          62.3354   86.7930   10.6495 C.3     1  UNL1        0.0036
@<TRIPOS>BOND
     1    15    16    1
     2    16    17    2
     3    16    18    2
     4    16    13    1
     5    13     1    1
     6     1     2   ar
     7     2     3   ar
     8     3     4   ar
     9     4     5   ar
    10     5     6   ar
    11     6    19    1
    12    19    20    1
    13    20    21    1
    14    21    22    1
    15    22    23    1
    16    23    24    1
    17    24    25    1
    18    25    26    1
    19    26    27    1
    20    27    28    1
    21    27    29    1
    22    25    30    1
    23     6     7   ar
    24     7    10    1
    25    10    11    1
    26    11    12    1
    27     7     8   ar
    28     8     9   ar
    29     9     1   ar
    30     9     4   ar
    31    29    21    1
    32    12    10    1
    33    30    21    1
    34    28    23    1
    35    13    14    1
@<TRIPOS>MOLECULE
*****
 30 35 0 0 0
SMALL
GASTEIGER

@<TRIPOS>ATOM
      1 C          63.4683   86.9482   13.4959 C.ar    1  UNL1        0.2409
      2 N          62.6273   86.6559   12.2888 N.ar    1  UNL1       -0.1111
      3 N          62.5297   87.9131   11.4764 N.ar    1  UNL1       -0.1270
      4 C          63.3104   88.9824   12.1815 C.ar    1  UNL1        0.1744
      5 C          63.5679   90.4220   11.8483 C.ar    1  UNL1        0.0758
      6 C          64.4056   91.2653   12.7632 C.ar    1  UNL1        0.1390
      7 C          64.9857   90.6689   14.0114 C.ar    1  UNL1        0.0292
      8 C          64.7281   89.2293   14.3446 C.ar    1  UNL1        0.0828
      9 N          63.8905   88.3860   13.4297 N.ar    1  UNL1       -0.2599
     10 C          65.8234   91.5123   14.9263 C.3     1  UNL1        0.0268
     11 C          65.9270   92.5106   16.0411 C.3     1  UNL1        0.0048
     12 C          67.1707   91.9747   15.3962 C.3     1  UNL1        0.0048
     13 N          63.8246   85.9737   14.5792 N.pl3   1  UNL1       -0.1872
     14 H          64.3548   86.2709   15.3537 H       1  UNL1        0.1764
     15 C          62.9217   83.1194   14.3856 C.3     1  UNL1        0.1997
     16 S          63.3731   84.5465   14.4825 S.O2    1  UNL1        0.0580
     17 O          64.6111   84.2075   13.7064 O.2     1  UNL1       -0.1544
     18 O          62.1351   84.8855   15.2586 O.2     1  UNL1       -0.1544
     19 O          64.6632   92.7050   12.4300 O.3     1  UNL1       -0.4756
     20 C          66.0673   93.1840   12.2088 C.3     1  UNL1        0.2051
     21 C          66.4149   93.9361   10.9584 C.3     1  UNL1        0.0404
     22 C          67.3662   93.3392    9.9641 C.3     1  UNL1        0.0036
     23 C          67.7138   94.0914    8.7137 C.3     1  UNL1        0.0001
     24 C          67.1101   95.4405    8.4577 C.3     1  UNL1        0.0000
     25 C          66.1588   96.0374    9.4520 C.3     1  UNL1        0.0001
     26 C          67.0722   93.1136   10.6464 C.3     1  UNL1        0.0000
     27 C          67.9700   91.9902   10.2201 C.3     1  UNL1        0.0001
     28 C          68.3175   92.7423    8.9698 C.3     1  UNL1        0.0000
     29 C          67.0187   92.5871   11.2144 C.3     1  UNL1        0.0036
     30 C          65.8112   95.2852   10.7023 C.3     1  UNL1        0.0036
@<TRIPOS>BOND
     1    15    16    1
     2    16    17    2
     3    16    18    2
     4    16    13    1
     5    13     1    1
     6     1     2   ar
     7     2     3   ar
     8     3     4   ar
     9     4     5   ar
    10     5     6   ar
    11     6    19    1
    12    19    20    1
    13    20    21    1
    14    21    22    1
    15    22    23    1
    16    23    24    1
    17    24    25    1
    18    25    26    1
    19    26    27    1
    20    27    28    1
    21    27    29    1
    22    25    30    1
    23     6     7   ar
    24     7    10    1
    25    10    11    1
    26    11    12    1
    27     7     8   ar
    28     8     9   ar
    29     9     1   ar
    30     9     4   ar
    31    29    21    1
    32    12    10    1
    33    30    21    1
    34    28    23    1
    35    13    14    1
@<TRIPOS>MOLECULE
*****
 30 35 0 0 0
SMALL
GASTEIGER

@<TRIPOS>ATOM
      1 C          63.9736   83.4092   13.7271 C.ar    1  UNL1        0.2409
      2 N          64.6937   83.8969   14.9492 N.ar    1  UNL1       -0.1111
      3 N          64.6564   85.3964   14.9415 N.ar    1  UNL1       -0.1270
      4 C          63.9133   85.8354   13.7147 C.ar    1  UNL1        0.1744
      5 C          63.5664   87.1948   13.1840 C.ar    1  UNL1        0.0758
      6 C          62.7975   87.3260   11.9028 C.ar    1  UNL1        0.1390
      7 C          62.3756   86.0977   11.1522 C.ar    1  UNL1        0.0292
      8 C          62.7225   84.7383   11.6829 C.ar    1  UNL1        0.0828
      9 N          63.4913   84.6072   12.9641 N.ar    1  UNL1       -0.2599
     10 C          61.6067   86.2290    9.8709 C.3     1  UNL1        0.0268
     11 C          60.4026   86.7196    9.1229 C.3     1  UNL1        0.0048
     12 C          61.4790   85.9656    8.3998 C.3     1  UNL1        0.0048
     13 N          63.7714   81.9751   13.3365 N.pl3   1  UNL1       -0.1872
     14 H          64.4979   81.4777   12.8959 H       1  UNL1        0.1764
     15 C          61.1530   80.6225   13.8977 C.3     1  UNL1        0.1997
     16 S          62.4621   81.2988   13.6171 S.O2    1  UNL1        0.0580
     17 O          62.6290   80.4635   12.3825 O.2     1  UNL1       -0.1544
     18 O          62.2953   82.1341   14.8518 O.2     1  UNL1       -0.1544
     19 O          62.4506   88.6854   11.3721 O.3     1  UNL1       -0.4756
     20 C          62.3491   89.8527   12.3086 C.3     1  UNL1        0.2051
     21 C          63.5795   90.6275   12.6776 C.3     1  UNL1        0.0404
     22 C          64.2310   91.5256   11.6682 C.3     1  UNL1        0.0036
     23 C          65.4613   92.3003   12.0372 C.3     1  UNL1        0.0001
     24 C          66.0401   92.1768   13.4155 C.3     1  UNL1        0.0000
     25 C          65.3886   91.2787   14.4249 C.3     1  UNL1        0.0001
     26 C          63.6102   91.0592   11.6684 C.3     1  UNL1        0.0000
     27 C          63.6522   91.6491   10.2899 C.3     1  UNL1        0.0001
     28 C          64.8825   92.4238   10.6589 C.3     1  UNL1        0.0000
     29 C          63.0007   90.7509   11.2993 C.3     1  UNL1        0.0036
     30 C          64.1583   90.5040   14.0559 C.3     1  UNL1        0.0036
@<TRIPOS>BOND
     1    15    16    1
     2    16    17    2
     3    16    18    2
     4    16    13    1
     5    13     1    1
     6     1     2   ar
     7     2     3   ar
     8     3     4   ar
     9     4     5   ar
    10     5     6   ar
    11     6    19    1
    12    19    20    1
    13    20    21    1
    14    21    22    1
    15    22    23    1
    16    23    24    1
    17    24    25    1
    18    25    26    1
    19    26    27    1
    20    27    28    1
    21    27    29    1
    22    25    30    1
    23     6     7   ar
    24     7    10    1
    25    10    11    1
    26    11    12    1
    27     7     8   ar
    28     8     9   ar
    29     9     1   ar
    30     9     4   ar
    31    29    21    1
    32    12    10    1
    33    30    21    1
    34    28    23    1
    35    13    14    1
@<TRIPOS>MOLECULE
*****
 30 35 0 0 0
SMALL
GASTEIGER

@<TRIPOS>ATOM
      1 C          66.0385   93.2183   12.8410 C.ar    1  UNL1        0.2409
      2 N          65.9416   93.6461   11.4065 N.ar    1  UNL1       -0.1111
      3 N          64.9734   92.7326   10.7149 N.ar    1  UNL1       -0.1270
      4 C          64.4720   91.7404   11.7219 C.ar    1  UNL1        0.1744
      5 C          63.5010   90.6024   11.6122 C.ar    1  UNL1        0.0758
      6 C          63.1883   89.7645   12.8164 C.ar    1  UNL1        0.1390
      7 C          63.8466   90.0647   14.1304 C.ar    1  UNL1        0.0292
      8 C          64.8175   91.2028   14.2402 C.ar    1  UNL1        0.0828
      9 N          65.1302   92.0406   13.0359 N.ar    1  UNL1       -0.2599
     10 C          63.5338   89.2268   15.3346 C.3     1  UNL1        0.0268
     11 C          63.0402   89.1148   16.7467 C.3     1  UNL1        0.0048
     12 C          63.4857   87.8875   16.0083 C.3     1  UNL1        0.0048
     13 N          66.8935   93.8564   13.8954 N.pl3   1  UNL1       -0.1872
     14 H          66.8479   94.8285   14.0445 H       1  UNL1        0.1764
     15 C          68.7424   92.1702   15.5503 C.3     1  UNL1        0.1997
     16 S          67.8180   93.0132   14.7229 S.O2    1  UNL1        0.0580
     17 O          67.3289   93.6964   15.9654 O.2     1  UNL1       -0.1544
     18 O          68.3071   92.3301   13.4803 O.2     1  UNL1       -0.1544
     19 O          62.2173   88.6264   12.7066 O.3     1  UNL1       -0.4756
     20 C          62.0195   87.9335   11.3911 C.3     1  UNL1        0.2051
     21 C          62.4629   86.5109   11.2186 C.3     1  UNL1        0.0404
     22 C          62.5370   85.9096    9.8464 C.3     1  UNL1        0.0036
     23 C          62.9804   84.4871    9.6739 C.3     1  UNL1        0.0001
     24 C          63.3495   83.6658   10.8736 C.3     1  UNL1        0.0000
     25 C          63.2754   84.2671   12.2458 C.3     1  UNL1        0.0001
     26 C          62.3382   86.6039   10.1315 C.3     1  UNL1        0.0000
     27 C          62.1679   86.7309    8.6467 C.3     1  UNL1        0.0001
     28 C          62.6112   85.3083    8.4742 C.3     1  UNL1        0.0000
     29 C          62.0937   87.3321   10.0189 C.3     1  UNL1        0.0036
     30 C          62.8320   85.6896   12.4182 C.3     1  UNL1        0.0036
@<TRIPOS>BOND
     1    15    16    1
     2    16    17    2
     3    16    18    2
     4    16    13    1
     5    13     1    1
     6     1     2   ar
     7     2     3   ar
     8     3     4   ar
     9     4     5   ar
    10     5     6   ar
    11     6    19    1
    12    19    20    1
    13    20    21    1
    14    21    22    1
    15    22    23    1
    16    23    24    1
    17    24    25    1
    18    25    26    1
    19    26    27    1
    20    27    28    1
    21    27    29    1
    22    25    30    1
    23     6     7   ar
    24     7    10    1
    25    10    11    1
    26    11    12    1
    27     7     8   ar
    28     8     9   ar
    29     9     1   ar
    30     9     4   ar
    31    29    21    1
    32    12    10    1
    33    30    21    1
    34    28    23    1
    35    13    14    1
@<TRIPOS>MOLECULE
*****
 30 35 0 0 0
SMALL
GASTEIGER

@<TRIPOS>ATOM
      1 C          61.6732   87.1234   11.0223 C.ar    1  UNL1        0.2409
      2 N          61.1146   87.2905    9.6403 N.ar    1  UNL1       -0.1111
      3 N          61.4754   88.6640    9.1575 N.ar    1  UNL1       -0.1270
      4 C          62.2571   89.3458   10.2411 C.ar    1  UNL1        0.1744
      5 C          62.8733   90.7106   10.3272 C.ar    1  UNL1        0.0758
      6 C          63.6118   91.1233   11.5659 C.ar    1  UNL1        0.1390
      7 C          63.7341   90.1710   12.7184 C.ar    1  UNL1        0.0292
      8 C          63.1179   88.8062   12.6323 C.ar    1  UNL1        0.0828
      9 N          62.3794   88.3936   11.3936 N.ar    1  UNL1       -0.2599
     10 C          64.4726   90.5837   13.9571 C.3     1  UNL1        0.0268
     11 C          65.7625   90.8870   14.6601 C.3     1  UNL1        0.0048
     12 C          64.4619   90.9951   15.3995 C.3     1  UNL1        0.0048
     13 N          61.5478   85.9006   11.8821 N.pl3   1  UNL1       -0.1872
     14 H          60.6895   85.6897   12.3156 H       1  UNL1        0.1764
     15 C          63.9126   84.0980   12.2804 C.3     1  UNL1        0.1997
     16 S          62.7303   84.9993   12.0812 S.O2    1  UNL1        0.0580
     17 O          62.6533   85.2257   13.5620 O.2     1  UNL1       -0.1544
     18 O          62.8072   84.7730   10.6004 O.2     1  UNL1       -0.1544
     19 O          64.2281   92.4881   11.6520 O.3     1  UNL1       -0.4756
     20 C          65.7148   92.6486   11.5339 C.3     1  UNL1        0.2051
     21 C          66.2872   93.6530   10.5780 C.3     1  UNL1        0.0404
     22 C          67.4576   93.2849    9.7152 C.3     1  UNL1        0.0036
     23 C          68.0300   94.2893    8.7594 C.3     1  UNL1        0.0001
     24 C          67.4319   95.6617    8.6664 C.3     1  UNL1        0.0000
     25 C          66.2614   96.0298    9.5292 C.3     1  UNL1        0.0001
     26 C          67.0347   92.9173   10.2527 C.3     1  UNL1        0.0000
     27 C          68.0557   91.9124    9.8082 C.3     1  UNL1        0.0001
     28 C          68.6281   92.9168    8.8524 C.3     1  UNL1        0.0000
     29 C          66.8853   92.2805   10.6710 C.3     1  UNL1        0.0036
     30 C          65.6891   95.0254   10.4851 C.3     1  UNL1        0.0036
@<TRIPOS>BOND
     1    15    16    1
     2    16    17    2
     3    16    18    2
     4    16    13    1
     5    13     1    1
     6     1     2   ar
     7     2     3   ar
     8     3     4   ar
     9     4     5   ar
    10     5     6   ar
    11     6    19    1
    12    19    20    1
    13    20    21    1
    14    21    22    1
    15    22    23    1
    16    23    24    1
    17    24    25    1
    18    25    26    1
    19    26    27    1
    20    27    28    1
    21    27    29    1
    22    25    30    1
    23     6     7   ar
    24     7    10    1
    25    10    11    1
    26    11    12    1
    27     7     8   ar
    28     8     9   ar
    29     9     1   ar
    30     9     4   ar
    31    29    21    1
    32    12    10    1
    33    30    21    1
    34    28    23    1
    35    13    14    1
@<TRIPOS>MOLECULE
*****
 30 35 0 0 0
SMALL
GASTEIGER

@<TRIPOS>ATOM
      1 C          63.7685   83.3747   13.6893 C.ar    1  UNL1        0.2409
      2 N          64.5634   83.7967   14.8894 N.ar    1  UNL1       -0.1111
      3 N          64.6237   85.2954   14.9017 N.ar    1  UNL1       -0.1270
      4 C          63.8662   85.7997   13.7093 C.ar    1  UNL1        0.1744
      5 C          63.5894   87.1864   13.2091 C.ar    1  UNL1        0.0758
      6 C          62.7840   87.3861   11.9595 C.ar    1  UNL1        0.1390
      7 C          62.2555   86.1990   11.2102 C.ar    1  UNL1        0.0292
      8 C          62.5323   84.8123   11.7104 C.ar    1  UNL1        0.0828
      9 N          63.3376   84.6126   12.9600 N.ar    1  UNL1       -0.2599
     10 C          61.4501   86.3987    9.9605 C.3     1  UNL1        0.0268
     11 C          61.2141   86.1114    8.5073 C.3     1  UNL1        0.0048
     12 C          60.2911   87.0320    9.2494 C.3     1  UNL1        0.0048
     13 N          63.4589   81.9627   13.2889 N.pl3   1  UNL1       -0.1872
     14 H          64.1130   81.4444   12.7666 H       1  UNL1        0.1764
     15 C          60.8462   80.7179   14.0792 C.3     1  UNL1        0.1997
     16 S          62.1525   81.3403   13.6841 S.O2    1  UNL1        0.0580
     17 O          62.4173   80.1939   12.7537 O.2     1  UNL1       -0.1544
     18 O          61.8878   82.4867   14.6145 O.2     1  UNL1       -0.1544
     19 O          62.5072   88.7729   11.4592 O.3     1  UNL1       -0.4756
     20 C          62.6518   89.9461   12.3825 C.3     1  UNL1        0.2051
     21 C          63.7691   90.9264   12.1805 C.3     1  UNL1        0.0404
     22 C          64.6818   91.2688   13.3205 C.3     1  UNL1        0.0036
     23 C          65.7990   92.2490   13.1184 C.3     1  UNL1        0.0001
     24 C          66.0036   92.8868   11.7762 C.3     1  UNL1        0.0000
     25 C          65.0909   92.5444   10.6362 C.3     1  UNL1        0.0001
     26 C          64.0684   90.8015   13.2296 C.3     1  UNL1        0.0000
     27 C          64.4772   90.6309   14.6626 C.3     1  UNL1        0.0001
     28 C          65.5945   91.6111   14.4605 C.3     1  UNL1        0.0000
     29 C          63.5645   90.2885   13.5226 C.3     1  UNL1        0.0036
     30 C          63.9736   91.5642   10.8383 C.3     1  UNL1        0.0036
@<TRIPOS>BOND
     1    15    16    1
     2    16    17    2
     3    16    18    2
     4    16    13    1
     5    13     1    1
     6     1     2   ar
     7     2     3   ar
     8     3     4   ar
     9     4     5   ar
    10     5     6   ar
    11     6    19    1
    12    19    20    1
    13    20    21    1
    14    21    22    1
    15    22    23    1
    16    23    24    1
    17    24    25    1
    18    25    26    1
    19    26    27    1
    20    27    28    1
    21    27    29    1
    22    25    30    1
    23     6     7   ar
    24     7    10    1
    25    10    11    1
    26    11    12    1
    27     7     8   ar
    28     8     9   ar
    29     9     1   ar
    30     9     4   ar
    31    29    21    1
    32    12    10    1
    33    30    21    1
    34    28    23    1
    35    13    14    1
@<TRIPOS>MOLECULE
*****
 30 35 0 0 0
SMALL
GASTEIGER

@<TRIPOS>ATOM
      1 C          63.1198   83.8333   13.2607 C.ar    1  UNL1        0.2409
      2 N          63.9075   83.5965   14.5151 N.ar    1  UNL1       -0.1111
      3 N          64.4249   84.9204   14.9943 N.ar    1  UNL1       -0.1270
      4 C          63.9570   85.9754   14.0361 C.ar    1  UNL1        0.1744
      5 C          64.1611   87.4610   14.0009 C.ar    1  UNL1        0.0758
      6 C          63.5587   88.2747   12.8941 C.ar    1  UNL1        0.1390
      7 C          62.7521   87.6028   11.8227 C.ar    1  UNL1        0.0292
      8 C          62.5479   86.1173   11.8580 C.ar    1  UNL1        0.0828
      9 N          63.1504   85.3035   12.9647 N.ar    1  UNL1       -0.2599
     10 C          62.1497   88.4167   10.7159 C.3     1  UNL1        0.0268
     11 C          61.2146   88.5315    9.5487 C.3     1  UNL1        0.0048
     12 C          62.0413   89.7113    9.9663 C.3     1  UNL1        0.0048
     13 N          62.4237   82.7841   12.4454 N.pl3   1  UNL1       -0.1872
     14 H          61.9893   83.0283   11.5964 H       1  UNL1        0.1764
     15 C          62.3553   79.9416   13.4022 C.3     1  UNL1        0.1997
     16 S          62.3895   81.3628   12.9238 S.O2    1  UNL1        0.0580
     17 O          61.7450   81.8088   14.2027 O.2     1  UNL1       -0.1544
     18 O          63.0341   80.9169   11.6449 O.2     1  UNL1       -0.1544
     19 O          63.7629   89.7604   12.8588 O.3     1  UNL1       -0.4756
     20 C          63.8957   90.5298   14.1395 C.3     1  UNL1        0.2051
     21 C          64.9849   91.5499   14.2922 C.3     1  UNL1        0.0404
     22 C          65.4794   92.3041   13.0936 C.3     1  UNL1        0.0036
     23 C          66.5686   93.3241   13.2463 C.3     1  UNL1        0.0001
     24 C          67.1632   93.5898   14.5975 C.3     1  UNL1        0.0000
     25 C          66.6686   92.8356   15.7961 C.3     1  UNL1        0.0001
     26 C          64.9426   91.7563   13.2145 C.3     1  UNL1        0.0000
     27 C          64.8848   92.0383   11.7424 C.3     1  UNL1        0.0001
     28 C          65.9740   93.0583   11.8951 C.3     1  UNL1        0.0000
     29 C          64.3903   91.2841   12.9409 C.3     1  UNL1        0.0036
     30 C          65.5795   91.8156   15.6434 C.3     1  UNL1        0.0036
@<TRIPOS>BOND
     1    15    16    1
     2    16    17    2
     3    16    18    2
     4    16    13    1
     5    13     1    1
     6     1     2   ar
     7     2     3   ar
     8     3     4   ar
     9     4     5   ar
    10     5     6   ar
    11     6    19    1
    12    19    20    1
    13    20    21    1
    14    21    22    1
    15    22    23    1
    16    23    24    1
    17    24    25    1
    18    25    26    1
    19    26    27    1
    20    27    28    1
    21    27    29    1
    22    25    30    1
    23     6     7   ar
    24     7    10    1
    25    10    11    1
    26    11    12    1
    27     7     8   ar
    28     8     9   ar
    29     9     1   ar
    30     9     4   ar
    31    29    21    1
    32    12    10    1
    33    30    21    1
    34    28    23    1
    35    13    14    1
@<TRIPOS>MOLECULE
*****
 30 35 0 0 0
SMALL
GASTEIGER

@<TRIPOS>ATOM
      1 C          64.8193   92.3511   11.9280 C.ar    1  UNL1        0.2409
      2 N          64.2816   92.8019   10.6022 N.ar    1  UNL1       -0.1111
      3 N          63.4280   91.6994   10.0493 N.ar    1  UNL1       -0.1270
      4 C          63.4381   90.5673   11.0333 C.ar    1  UNL1        0.1744
      5 C          62.7755   89.2216   11.0220 C.ar    1  UNL1        0.0758
      6 C          62.9727   88.2789   12.1719 C.ar    1  UNL1        0.1390
      7 C          63.8326   88.6817   13.3330 C.ar    1  UNL1        0.0292
      8 C          64.4953   90.0273   13.3443 C.ar    1  UNL1        0.0828
      9 N          64.2980   90.9701   12.1944 N.ar    1  UNL1       -0.2599
     10 C          64.0298   87.7389   14.4829 C.3     1  UNL1        0.0268
     11 C          64.6947   86.5305   15.0727 C.3     1  UNL1        0.0048
     12 C          63.7066   87.3142   15.8847 C.3     1  UNL1        0.0048
     13 N          65.7202   93.1425   12.8292 N.pl3   1  UNL1       -0.1872
     14 H          65.5097   94.0823   13.0338 H       1  UNL1        0.1764
     15 C          68.1635   91.8617   14.0082 C.3     1  UNL1        0.1997
     16 S          66.9419   92.5021   13.4188 S.O2    1  UNL1        0.0580
     17 O          67.5310   92.3628   12.0464 O.2     1  UNL1       -0.1544
     18 O          66.3526   92.6414   14.7911 O.2     1  UNL1       -0.1544
     19 O          62.3100   86.9332   12.1606 O.3     1  UNL1       -0.4756
     20 C          62.3846   86.0707   10.9357 C.3     1  UNL1        0.2051
     21 C          62.9650   84.6904   11.0244 C.3     1  UNL1        0.0404
     22 C          62.9163   83.9382   12.3213 C.3     1  UNL1        0.0036
     23 C          63.4967   82.5580   12.4100 C.3     1  UNL1        0.0001
     24 C          64.1258   81.9298   11.2019 C.3     1  UNL1        0.0000
     25 C          64.1745   82.6819    9.9050 C.3     1  UNL1        0.0001
     26 C          62.6785   84.6380   12.0832 C.3     1  UNL1        0.0000
     27 C          62.2872   84.5664   13.5294 C.3     1  UNL1        0.0001
     28 C          62.8676   83.1861   13.6182 C.3     1  UNL1        0.0000
     29 C          62.3359   85.3185   12.2326 C.3     1  UNL1        0.0036
     30 C          63.5941   84.0622    9.8163 C.3     1  UNL1        0.0036
@<TRIPOS>BOND
     1    15    16    1
     2    16    17    2
     3    16    18    2
     4    16    13    1
     5    13     1    1
     6     1     2   ar
     7     2     3   ar
     8     3     4   ar
     9     4     5   ar
    10     5     6   ar
    11     6    19    1
    12    19    20    1
    13    20    21    1
    14    21    22    1
    15    22    23    1
    16    23    24    1
    17    24    25    1
    18    25    26    1
    19    26    27    1
    20    27    28    1
    21    27    29    1
    22    25    30    1
    23     6     7   ar
    24     7    10    1
    25    10    11    1
    26    11    12    1
    27     7     8   ar
    28     8     9   ar
    29     9     1   ar
    30     9     4   ar
    31    29    21    1
    32    12    10    1
    33    30    21    1
    34    28    23    1
    35    13    14    1
