@<TRIPOS>MOLECULE
*****
 25 28 0 0 0
SMALL
GASTEIGER

@<TRIPOS>ATOM
      1 C          65.2665   91.7310   13.9217 C.ar    1  UNL1        0.0481
      2 C          64.9427   91.4309   15.3552 C.ar    1  UNL1        0.0145
      3 C          63.8540   90.4549   15.6897 C.ar    1  UNL1        0.0013
      4 C          63.0890   89.7789   14.5907 C.ar    1  UNL1        0.0021
      5 C          63.4127   90.0790   13.1572 C.ar    1  UNL1        0.0250
      6 C          64.5015   91.0550   12.8227 C.ar    1  UNL1        0.0165
      7 C          62.6477   89.4031   12.0581 C.ar    1  UNL1        0.1107
      8 N          62.6017   87.9271   11.7945 N.ar    1  UNL1       -0.2383
      9 C          61.7200   87.6963   10.6032 C.ar    1  UNL1        0.0878
     10 C          61.3069   86.4443    9.8878 C.ar    1  UNL1        0.0196
     11 C          60.3950   86.5255    8.6997 C.ar    1  UNL1        0.0016
     12 C          59.8960   87.8588    8.2270 C.ar    1  UNL1        0.0006
     13 C          60.3090   89.1108    8.9424 C.ar    1  UNL1        0.0080
     14 C          61.2210   89.0295   10.1305 C.ar    1  UNL1        0.0485
     15 S          61.7944   90.0844   11.0297 S.2     1  UNL1       -0.0665
     16 N          66.3553   92.7070   13.5871 N.pl3   1  UNL1       -0.3035
     17 C          67.9033   93.5486   15.4965 C.3     1  UNL1        0.0232
     18 C          67.6636   92.6511   14.3187 C.3     1  UNL1        0.0911
     19 C          66.1358   93.7391   12.5209 C.3     1  UNL1        0.1193
     20 C          66.8398   93.6165   11.2021 C.ar    1  UNL1        0.0168
     21 C          67.4584   92.3102   10.8007 C.ar    1  UNL1        0.0005
     22 C          68.1624   92.1876    9.4819 C.ar    1  UNL1        0.0204
     23 C          68.2479   93.3712    8.5645 C.ar    1  UNL1        0.0989
     24 N          67.6293   94.6775    8.9658 N.ar    1  UNL1       -0.2426
     25 C          66.9253   94.8001   10.2847 C.ar    1  UNL1        0.0962
@<TRIPOS>BOND
     1    17    18    1
     2    18    16    1
     3    16    19    1
     4    19    20    1
     5    20    21   ar
     6    21    22   ar
     7    22    23   ar
     8    23    24   ar
     9    24    25   ar
    10    16     1    1
    11     1     2   ar
    12     2     3   ar
    13     3     4   ar
    14     4     5   ar
    15     5     7    1
    16     7     8   ar
    17     8     9   ar
    18     9    10   ar
    19    10    11   ar
    20    11    12   ar
    21    12    13   ar
    22    13    14   ar
    23    14    15   ar
    24     5     6   ar
    25    25    20   ar
    26     6     1   ar
    27    15     7   ar
    28    14     9   ar
@<TRIPOS>MOLECULE
*****
 25 28 0 0 0
SMALL
GASTEIGER

@<TRIPOS>ATOM
      1 C          63.5696   89.1776   12.8345 C.ar    1  UNL1        0.0481
      2 C          62.9573   89.7673   11.5986 C.ar    1  UNL1        0.0145
      3 C          62.2802   88.8772   10.5991 C.ar    1  UNL1        0.0013
      4 C          62.2154   87.3974   10.8353 C.ar    1  UNL1        0.0021
      5 C          62.8276   86.8076   12.0711 C.ar    1  UNL1        0.0250
      6 C          63.5047   87.6977   13.0707 C.ar    1  UNL1        0.0165
      7 C          62.7627   85.3278   12.3074 C.ar    1  UNL1        0.1107
      8 N          62.4487   84.6560   13.6113 N.ar    1  UNL1       -0.2383
      9 C          62.4924   83.1729   13.3910 C.ar    1  UNL1        0.0878
     10 C          62.2657   82.0138   14.3156 C.ar    1  UNL1        0.0196
     11 C          62.3800   80.6098   13.8002 C.ar    1  UNL1        0.0016
     12 C          62.7211   80.3649   12.3601 C.ar    1  UNL1        0.0006
     13 C          62.9478   81.5241   11.4355 C.ar    1  UNL1        0.0080
     14 C          62.8334   82.9280   11.9509 C.ar    1  UNL1        0.0485
     15 S          63.0005   84.2598   11.2813 S.2     1  UNL1       -0.0665
     16 N          64.2468   90.0677   13.8341 N.pl3   1  UNL1       -0.3035
     17 C          63.1919   89.7547   16.1877 C.3     1  UNL1        0.0232
     18 C          64.3680   89.6329   15.2646 C.3     1  UNL1        0.0911
     19 C          64.8027   91.3926   13.4032 C.3     1  UNL1        0.1193
     20 C          66.0560   91.9214   14.0353 C.ar    1  UNL1        0.0168
     21 C          66.0223   92.4525   15.4377 C.ar    1  UNL1        0.0005
     22 C          67.2756   92.9813   16.0698 C.ar    1  UNL1        0.0204
     23 C          68.5627   92.9790   15.2994 C.ar    1  UNL1        0.0989
     24 N          68.5965   92.4479   13.8970 N.ar    1  UNL1       -0.2426
     25 C          67.3431   91.9191   13.2649 C.ar    1  UNL1        0.0962
@<TRIPOS>BOND
     1    17    18    1
     2    18    16    1
     3    16    19    1
     4    19    20    1
     5    20    21   ar
     6    21    22   ar
     7    22    23   ar
     8    23    24   ar
     9    24    25   ar
    10    16     1    1
    11     1     2   ar
    12     2     3   ar
    13     3     4   ar
    14     4     5   ar
    15     5     7    1
    16     7     8   ar
    17     8     9   ar
    18     9    10   ar
    19    10    11   ar
    20    11    12   ar
    21    12    13   ar
    22    13    14   ar
    23    14    15   ar
    24     5     6   ar
    25    25    20   ar
    26     6     1   ar
    27    15     7   ar
    28    14     9   ar
@<TRIPOS>MOLECULE
*****
 25 28 0 0 0
SMALL
GASTEIGER

@<TRIPOS>ATOM
      1 C          64.4901   91.2615   13.1091 C.ar    1  UNL1        0.0481
      2 C          65.1102   92.4261   12.3956 C.ar    1  UNL1        0.0145
      3 C          64.8038   92.6678   10.9473 C.ar    1  UNL1        0.0013
      4 C          63.8774   91.7449   10.2124 C.ar    1  UNL1        0.0021
      5 C          63.2573   90.5803   10.9260 C.ar    1  UNL1        0.0250
      6 C          63.5637   90.3386   12.3743 C.ar    1  UNL1        0.0165
      7 C          62.3309   89.6573   10.1911 C.ar    1  UNL1        0.1107
      8 N          61.1582   90.0698    9.3517 N.ar    1  UNL1       -0.2383
      9 C          60.5170   88.8273    8.8085 C.ar    1  UNL1        0.0878
     10 C          59.3265   88.6182    7.9203 C.ar    1  UNL1        0.0196
     11 C          58.9125   87.2288    7.5358 C.ar    1  UNL1        0.0016
     12 C          59.6890   86.0483    8.0395 C.ar    1  UNL1        0.0006
     13 C          60.8795   86.2574    8.9277 C.ar    1  UNL1        0.0080
     14 C          61.2935   87.6469    9.3122 C.ar    1  UNL1        0.0485
     15 S          62.4145   88.1599   10.1667 S.2     1  UNL1       -0.0665
     16 N          64.7964   91.0198   14.5575 N.pl3   1  UNL1       -0.3035
     17 C          66.3087   92.6260   15.9298 C.3     1  UNL1        0.0232
     18 C          66.1435   91.3809   15.1096 C.3     1  UNL1        0.0911
     19 C          63.7555   90.4170   15.4537 C.3     1  UNL1        0.1193
     20 C          63.7280   88.9344   15.6798 C.ar    1  UNL1        0.0168
     21 C          64.4097   88.0151   14.7101 C.ar    1  UNL1        0.0005
     22 C          64.3821   86.5325   14.9362 C.ar    1  UNL1        0.0204
     23 C          63.6731   85.9692   16.1319 C.ar    1  UNL1        0.0989
     24 N          62.9915   86.8884   17.1016 N.ar    1  UNL1       -0.2426
     25 C          63.0189   88.3711   16.8756 C.ar    1  UNL1        0.0962
@<TRIPOS>BOND
     1    17    18    1
     2    18    16    1
     3    16    19    1
     4    19    20    1
     5    20    21   ar
     6    21    22   ar
     7    22    23   ar
     8    23    24   ar
     9    24    25   ar
    10    16     1    1
    11     1     2   ar
    12     2     3   ar
    13     3     4   ar
    14     4     5   ar
    15     5     7    1
    16     7     8   ar
    17     8     9   ar
    18     9    10   ar
    19    10    11   ar
    20    11    12   ar
    21    12    13   ar
    22    13    14   ar
    23    14    15   ar
    24     5     6   ar
    25    25    20   ar
    26     6     1   ar
    27    15     7   ar
    28    14     9   ar
@<TRIPOS>MOLECULE
*****
 25 28 0 0 0
SMALL
GASTEIGER

@<TRIPOS>ATOM
      1 C          63.1345   89.4868   11.8679 C.ar    1  UNL1        0.0481
      2 C          62.4253   89.8626   10.6007 C.ar    1  UNL1        0.0145
      3 C          61.7635   88.8039    9.7694 C.ar    1  UNL1        0.0013
      4 C          61.8110   87.3694   10.2052 C.ar    1  UNL1        0.0021
      5 C          62.5202   86.9936   11.4724 C.ar    1  UNL1        0.0250
      6 C          63.1820   88.0523   12.3037 C.ar    1  UNL1        0.0165
      7 C          62.5677   85.5591   11.9082 C.ar    1  UNL1        0.1107
      8 N          62.4015   85.0582   13.3123 N.ar    1  UNL1       -0.2383
      9 C          62.5208   83.5632   13.2884 C.ar    1  UNL1        0.0878
     10 C          62.4420   82.5325   14.3753 C.ar    1  UNL1        0.0196
     11 C          62.6030   81.0786   14.0432 C.ar    1  UNL1        0.0016
     12 C          62.8428   80.6554   12.6243 C.ar    1  UNL1        0.0006
     13 C          62.9216   81.6861   11.5374 C.ar    1  UNL1        0.0080
     14 C          62.7606   83.1400   11.8694 C.ar    1  UNL1        0.0485
     15 S          62.7896   84.3736   11.0165 S.2     1  UNL1       -0.0665
     16 N          63.7963   90.5455   12.6993 N.pl3   1  UNL1       -0.3035
     17 C          65.0947   92.1540   11.1254 C.3     1  UNL1        0.0232
     18 C          64.0099   91.9185   12.1342 C.3     1  UNL1        0.0911
     19 C          64.2446   90.2312   14.0958 C.3     1  UNL1        0.1193
     20 C          65.2723   91.0944   14.7658 C.ar    1  UNL1        0.0168
     21 C          66.6783   91.1288   14.2440 C.ar    1  UNL1        0.0005
     22 C          67.7059   91.9919   14.9140 C.ar    1  UNL1        0.0204
     23 C          67.3277   92.8206   16.1057 C.ar    1  UNL1        0.0989
     24 N          65.9218   92.7862   16.6274 N.ar    1  UNL1       -0.2426
     25 C          64.8941   91.9231   15.9575 C.ar    1  UNL1        0.0962
@<TRIPOS>BOND
     1    17    18    1
     2    18    16    1
     3    16    19    1
     4    19    20    1
     5    20    21   ar
     6    21    22   ar
     7    22    23   ar
     8    23    24   ar
     9    24    25   ar
    10    16     1    1
    11     1     2   ar
    12     2     3   ar
    13     3     4   ar
    14     4     5   ar
    15     5     7    1
    16     7     8   ar
    17     8     9   ar
    18     9    10   ar
    19    10    11   ar
    20    11    12   ar
    21    12    13   ar
    22    13    14   ar
    23    14    15   ar
    24     5     6   ar
    25    25    20   ar
    26     6     1   ar
    27    15     7   ar
    28    14     9   ar
@<TRIPOS>MOLECULE
*****
 25 28 0 0 0
SMALL
GASTEIGER

@<TRIPOS>ATOM
      1 C          63.2340   89.0603   12.3776 C.ar    1  UNL1        0.0481
      2 C          62.6867   89.5312   11.0628 C.ar    1  UNL1        0.0145
      3 C          62.1188   88.5416   10.0892 C.ar    1  UNL1        0.0013
      4 C          62.0982   87.0811   10.4303 C.ar    1  UNL1        0.0021
      5 C          62.6455   86.6101   11.7450 C.ar    1  UNL1        0.0250
      6 C          63.2134   87.5997   12.7187 C.ar    1  UNL1        0.0165
      7 C          62.6249   85.1496   12.0861 C.ar    1  UNL1        0.1107
      8 N          62.3293   84.5632   13.4347 N.ar    1  UNL1       -0.2383
      9 C          62.4179   83.0701   13.3206 C.ar    1  UNL1        0.0878
     10 C          62.2249   81.9735   14.3256 C.ar    1  UNL1        0.0196
     11 C          62.3822   80.5405   13.9114 C.ar    1  UNL1        0.0016
     12 C          62.7327   80.2041   12.4922 C.ar    1  UNL1        0.0006
     13 C          62.9258   81.3007   11.4872 C.ar    1  UNL1        0.0080
     14 C          62.7684   82.7338   11.9014 C.ar    1  UNL1        0.0485
     15 S          62.8963   84.0189   11.1385 S.2     1  UNL1       -0.0665
     16 N          63.8020   90.0500   13.3514 N.pl3   1  UNL1       -0.3035
     17 C          63.4324   89.8243   15.9131 C.3     1  UNL1        0.0232
     18 C          64.2785   89.5893   14.6970 C.3     1  UNL1        0.0911
     19 C          63.8933   91.5002   12.9794 C.3     1  UNL1        0.1193
     20 C          65.0960   92.0113   12.2430 C.ar    1  UNL1        0.0168
     21 C          64.9624   92.4851   10.8260 C.ar    1  UNL1        0.0005
     22 C          66.1651   92.9962   10.0896 C.ar    1  UNL1        0.0204
     23 C          67.5013   93.0335   10.7701 C.ar    1  UNL1        0.0989
     24 N          67.6349   92.5598   12.1870 N.ar    1  UNL1       -0.2426
     25 C          66.4322   92.0487   12.9235 C.ar    1  UNL1        0.0962
@<TRIPOS>BOND
     1    17    18    1
     2    18    16    1
     3    16    19    1
     4    19    20    1
     5    20    21   ar
     6    21    22   ar
     7    22    23   ar
     8    23    24   ar
     9    24    25   ar
    10    16     1    1
    11     1     2   ar
    12     2     3   ar
    13     3     4   ar
    14     4     5   ar
    15     5     7    1
    16     7     8   ar
    17     8     9   ar
    18     9    10   ar
    19    10    11   ar
    20    11    12   ar
    21    12    13   ar
    22    13    14   ar
    23    14    15   ar
    24     5     6   ar
    25    25    20   ar
    26     6     1   ar
    27    15     7   ar
    28    14     9   ar
@<TRIPOS>MOLECULE
*****
 25 28 0 0 0
SMALL
GASTEIGER

@<TRIPOS>ATOM
      1 C          63.5400   85.8885   15.6098 C.ar    1  UNL1        0.0481
      2 C          62.9794   86.1337   16.9793 C.ar    1  UNL1        0.0145
      3 C          62.8565   87.5353   17.4994 C.ar    1  UNL1        0.0013
      4 C          63.2942   88.6916   16.6501 C.ar    1  UNL1        0.0021
      5 C          63.8549   88.4464   15.2806 C.ar    1  UNL1        0.0250
      6 C          63.9778   87.0449   14.7605 C.ar    1  UNL1        0.0165
      7 C          64.2926   89.6027   14.4313 C.ar    1  UNL1        0.1107
      8 N          65.2962   90.6490   14.8160 N.ar    1  UNL1       -0.2383
      9 C          65.4275   91.6087   13.6706 C.ar    1  UNL1        0.0878
     10 C          66.2678   92.8367   13.4814 C.ar    1  UNL1        0.0196
     11 C          66.1857   93.6114   12.1996 C.ar    1  UNL1        0.0016
     12 C          65.2632   93.1582   11.1071 C.ar    1  UNL1        0.0006
     13 C          64.4229   91.9302   11.2963 C.ar    1  UNL1        0.0080
     14 C          64.5051   91.1555   12.5781 C.ar    1  UNL1        0.0485
     15 S          63.8037   89.9157   13.0482 S.2     1  UNL1       -0.0665
     16 N          63.6629   84.4870   15.0895 N.pl3   1  UNL1       -0.3035
     17 C          62.0893   82.4650   14.6591 C.3     1  UNL1        0.0232
     18 C          62.7579   83.4110   15.6121 C.3     1  UNL1        0.0911
     19 C          64.6909   84.1615   14.0467 C.3     1  UNL1        0.1193
     20 C          64.2808   84.0057   12.6123 C.ar    1  UNL1        0.0168
     21 C          63.2281   84.9027   12.0315 C.ar    1  UNL1        0.0005
     22 C          62.8181   84.7469   10.5971 C.ar    1  UNL1        0.0204
     23 C          63.4607   83.6941    9.7435 C.ar    1  UNL1        0.0989
     24 N          64.5134   82.7972   10.3242 N.ar    1  UNL1       -0.2426
     25 C          64.9235   82.9530   11.7587 C.ar    1  UNL1        0.0962
@<TRIPOS>BOND
     1    17    18    1
     2    18    16    1
     3    16    19    1
     4    19    20    1
     5    20    21   ar
     6    21    22   ar
     7    22    23   ar
     8    23    24   ar
     9    24    25   ar
    10    16     1    1
    11     1     2   ar
    12     2     3   ar
    13     3     4   ar
    14     4     5   ar
    15     5     7    1
    16     7     8   ar
    17     8     9   ar
    18     9    10   ar
    19    10    11   ar
    20    11    12   ar
    21    12    13   ar
    22    13    14   ar
    23    14    15   ar
    24     5     6   ar
    25    25    20   ar
    26     6     1   ar
    27    15     7   ar
    28    14     9   ar
@<TRIPOS>MOLECULE
*****
 25 28 0 0 0
SMALL
GASTEIGER

@<TRIPOS>ATOM
      1 C          64.3327   90.6224   13.6038 C.ar    1  UNL1        0.0481
      2 C          64.0752   91.1164   14.9965 C.ar    1  UNL1        0.0145
      3 C          63.7004   90.1476   16.0785 C.ar    1  UNL1        0.0013
      4 C          63.5831   88.6848   15.7679 C.ar    1  UNL1        0.0021
      5 C          63.8406   88.1908   14.3752 C.ar    1  UNL1        0.0250
      6 C          64.2153   89.1596   13.2932 C.ar    1  UNL1        0.0165
      7 C          63.7233   86.7280   14.0646 C.ar    1  UNL1        0.1107
      8 N          63.1783   86.1364   12.7985 N.ar    1  UNL1       -0.2383
      9 C          63.2485   84.6428   12.9170 C.ar    1  UNL1        0.0878
     10 C          62.8527   83.5418   11.9783 C.ar    1  UNL1        0.0196
     11 C          63.0454   82.1092   12.3790 C.ar    1  UNL1        0.0016
     12 C          63.6338   81.7776   13.7184 C.ar    1  UNL1        0.0006
     13 C          64.0296   82.8786   14.6570 C.ar    1  UNL1        0.0080
     14 C          63.8369   84.3112   14.2563 C.ar    1  UNL1        0.0485
     15 S          64.1303   85.5999   14.9656 S.2     1  UNL1       -0.0665
     16 N          64.7074   91.5912   12.5216 N.pl3   1  UNL1       -0.3035
     17 C          62.6252   90.8822   11.1390 C.3     1  UNL1        0.0232
     18 C          63.9204   91.6313   11.2453 C.3     1  UNL1        0.0911
     19 C          65.8693   92.5198   12.7158 C.3     1  UNL1        0.1193
     20 C          66.5170   93.1692   11.5288 C.ar    1  UNL1        0.0168
     21 C          67.3846   92.3594   10.6114 C.ar    1  UNL1        0.0005
     22 C          68.0322   93.0087    9.4245 C.ar    1  UNL1        0.0204
     23 C          67.8123   94.4678    9.1549 C.ar    1  UNL1        0.0989
     24 N          66.9448   95.2776   10.0722 N.ar    1  UNL1       -0.2426
     25 C          66.2971   94.6283   11.2592 C.ar    1  UNL1        0.0962
@<TRIPOS>BOND
     1    17    18    1
     2    18    16    1
     3    16    19    1
     4    19    20    1
     5    20    21   ar
     6    21    22   ar
     7    22    23   ar
     8    23    24   ar
     9    24    25   ar
    10    16     1    1
    11     1     2   ar
    12     2     3   ar
    13     3     4   ar
    14     4     5   ar
    15     5     7    1
    16     7     8   ar
    17     8     9   ar
    18     9    10   ar
    19    10    11   ar
    20    11    12   ar
    21    12    13   ar
    22    13    14   ar
    23    14    15   ar
    24     5     6   ar
    25    25    20   ar
    26     6     1   ar
    27    15     7   ar
    28    14     9   ar
@<TRIPOS>MOLECULE
*****
 25 28 0 0 0
SMALL
GASTEIGER

@<TRIPOS>ATOM
      1 C          63.7259   86.5332   15.0424 C.ar    1  UNL1        0.0481
      2 C          63.1732   86.7360   16.4220 C.ar    1  UNL1        0.0145
      3 C          63.0651   88.1197   16.9907 C.ar    1  UNL1        0.0013
      4 C          63.5097   89.3007   16.1798 C.ar    1  UNL1        0.0021
      5 C          64.0624   89.0980   14.8002 C.ar    1  UNL1        0.0250
      6 C          64.1705   87.7142   14.2315 C.ar    1  UNL1        0.0165
      7 C          64.5070   90.2790   13.9893 C.ar    1  UNL1        0.1107
      8 N          64.1180   90.5711   12.5704 N.ar    1  UNL1       -0.2383
      9 C          64.7893   91.8479   12.1591 C.ar    1  UNL1        0.0878
     10 C          64.7723   92.6221   10.8745 C.ar    1  UNL1        0.0196
     11 C          65.5593   93.8933   10.7546 C.ar    1  UNL1        0.0016
     12 C          66.3633   94.3904   11.9193 C.ar    1  UNL1        0.0006
     13 C          66.3803   93.6162   13.2039 C.ar    1  UNL1        0.0080
     14 C          65.5932   92.3449   13.3238 C.ar    1  UNL1        0.0485
     15 S          65.4188   91.3753   14.4549 S.2     1  UNL1       -0.0665
     16 N          63.8340   85.1494   14.4736 N.pl3   1  UNL1       -0.3035
     17 C          66.4119   84.9072   14.6881 C.3     1  UNL1        0.0232
     18 C          65.0393   84.3079   14.7721 C.3     1  UNL1        0.0911
     19 C          62.7368   84.6071   13.6065 C.3     1  UNL1        0.1193
     20 C          62.8476   84.6962   12.1132 C.ar    1  UNL1        0.0168
     21 C          63.5720   83.6274   11.3498 C.ar    1  UNL1        0.0005
     22 C          63.6828   83.7165    9.8566 C.ar    1  UNL1        0.0204
     23 C          63.0693   84.8744    9.1267 C.ar    1  UNL1        0.0989
     24 N          62.3449   85.9433    9.8901 N.ar    1  UNL1       -0.2426
     25 C          62.2341   85.8542   11.3834 C.ar    1  UNL1        0.0962
@<TRIPOS>BOND
     1    17    18    1
     2    18    16    1
     3    16    19    1
     4    19    20    1
     5    20    21   ar
     6    21    22   ar
     7    22    23   ar
     8    23    24   ar
     9    24    25   ar
    10    16     1    1
    11     1     2   ar
    12     2     3   ar
    13     3     4   ar
    14     4     5   ar
    15     5     7    1
    16     7     8   ar
    17     8     9   ar
    18     9    10   ar
    19    10    11   ar
    20    11    12   ar
    21    12    13   ar
    22    13    14   ar
    23    14    15   ar
    24     5     6   ar
    25    25    20   ar
    26     6     1   ar
    27    15     7   ar
    28    14     9   ar
@<TRIPOS>MOLECULE
*****
 25 28 0 0 0
SMALL
GASTEIGER

@<TRIPOS>ATOM
      1 C          63.5738   86.4037   15.4154 C.ar    1  UNL1        0.0481
      2 C          63.0429   86.6731   16.7922 C.ar    1  UNL1        0.0145
      3 C          62.9670   88.0808   17.3045 C.ar    1  UNL1        0.0013
      4 C          63.4219   89.2191   16.4400 C.ar    1  UNL1        0.0021
      5 C          63.9528   88.9497   15.0633 C.ar    1  UNL1        0.0250
      6 C          64.0288   87.5420   14.5510 C.ar    1  UNL1        0.0165
      7 C          64.4078   90.0880   14.1988 C.ar    1  UNL1        0.1107
      8 N          65.4097   91.1378   14.5785 N.ar    1  UNL1       -0.2383
      9 C          65.5619   92.0750   13.4173 C.ar    1  UNL1        0.0878
     10 C          66.4098   93.2960   13.2174 C.ar    1  UNL1        0.0196
     11 C          66.3499   94.0465   11.9200 C.ar    1  UNL1        0.0016
     12 C          65.4420   93.5760   10.8226 C.ar    1  UNL1        0.0006
     13 C          64.5941   92.3549   11.0225 C.ar    1  UNL1        0.0080
     14 C          64.6540   91.6044   12.3198 C.ar    1  UNL1        0.0485
     15 S          63.9408   90.3764   12.8029 S.2     1  UNL1       -0.0665
     16 N          63.6498   84.9959   14.9030 N.pl3   1  UNL1       -0.3035
     17 C          66.2186   84.9602   14.5156 C.3     1  UNL1        0.0232
     18 C          64.9565   84.2597   14.9238 C.3     1  UNL1        0.0911
     19 C          62.4190   84.3244   14.3699 C.3     1  UNL1        0.1193
     20 C          62.5356   83.0302   13.6207 C.ar    1  UNL1        0.0168
     21 C          62.1584   81.7407   14.2879 C.ar    1  UNL1        0.0005
     22 C          62.2750   80.4465   13.5387 C.ar    1  UNL1        0.0204
     23 C          62.7688   80.4416   12.1224 C.ar    1  UNL1        0.0989
     24 N          63.1460   81.7310   11.4552 N.ar    1  UNL1       -0.2426
     25 C          63.0294   83.0253   12.2043 C.ar    1  UNL1        0.0962
@<TRIPOS>BOND
     1    17    18    1
     2    18    16    1
     3    16    19    1
     4    19    20    1
     5    20    21   ar
     6    21    22   ar
     7    22    23   ar
     8    23    24   ar
     9    24    25   ar
    10    16     1    1
    11     1     2   ar
    12     2     3   ar
    13     3     4   ar
    14     4     5   ar
    15     5     7    1
    16     7     8   ar
    17     8     9   ar
    18     9    10   ar
    19    10    11   ar
    20    11    12   ar
    21    12    13   ar
    22    13    14   ar
    23    14    15   ar
    24     5     6   ar
    25    25    20   ar
    26     6     1   ar
    27    15     7   ar
    28    14     9   ar
