@<TRIPOS>MOLECULE
*****
 55 57 0 0 0
SMALL
GASTEIGER

@<TRIPOS>ATOM
      1 C          62.5508   83.3441   12.0668 C.3     1  UNL1        0.1953
      2 O          62.4810   84.1030   10.7748 O.3     1  UNL1       -0.4497
      3 C          62.4804   85.3468    9.9364 C.2     1  UNL1        0.3188
      4 O          62.3244   84.8108    8.5441 O.2     1  UNL1       -0.2500
      5 C          62.5493   86.8292    9.7175 C.3     1  UNL1        0.1263
      6 C          62.4182   86.6122    8.3916 C.3     1  UNL1        0.0142
      7 C          62.6740   88.2565   10.1617 C.3     1  UNL1        0.1306
      8 C          62.8298   89.3461   11.1808 C.3     1  UNL1        0.0575
      9 C          62.8293   90.5899   10.3424 C.3     1  UNL1        0.0051
     10 C          62.9859   89.8821   12.5730 C.3     1  UNL1        0.1444
     11 C          63.1112   89.7584   14.0627 C.3     1  UNL1        0.1137
     12 C          63.1579   91.1927   13.6260 C.3     1  UNL1        0.0318
     13 O          63.2707   90.6827   15.2332 O.3     1  UNL1       -0.3844
     14 C          63.1811   88.9995   15.3546 C.3     1  UNL1        0.0366
     15 C          63.1816   87.7558   16.1930 C.3     1  UNL1        0.0601
     16 C          63.3377   88.2917   17.5853 C.3     1  UNL1        0.0078
     17 C          63.1127   86.2733   16.4119 C.2     1  UNL1        0.1523
     18 O          63.2381   86.1497   17.9016 O.2     1  UNL1       -0.2960
     19 C          62.9880   84.8460   15.9678 C.3     1  UNL1        0.0869
     20 C          63.0579   84.0871   17.2598 C.3     1  UNL1        0.0104
     21 C          62.8322   83.7564   14.9486 C.3     1  UNL1        0.1451
     22 O          62.8328   82.5127   15.7871 O.3     1  UNL1       -0.3815
     23 C          62.6762   83.2204   13.5564 C.3     1  UNL1        0.1497
     24 C          62.7006   82.1148   14.5698 C.3     1  UNL1        0.0356
     25 O          62.5380   81.8766   12.9046 O.3     1  UNL1       -0.3808
     26 H          63.2974   91.6002   14.9195 H       1  UNL1        0.2103
     27 H          62.9304   82.7529   16.7218 H       1  UNL1        0.2105
     28 H          62.5572   81.1843   13.5838 H       1  UNL1        0.2105
     29 C          63.3140   81.3896   10.5347 C.3     1  UNL1        0.0039
     30 C          62.4261   81.9168   11.6227 C.3     1  UNL1        0.0462
     31 O          62.6042   89.0154    8.8697 O.3     1  UNL1       -0.3323
     32 C          61.3080   89.1018    8.1198 C.3     1  UNL1        0.2374
     33 C          61.1040   90.1792    7.0963 C.3     1  UNL1        0.0886
     34 C          59.8078   90.2655    6.3463 C.3     1  UNL1        0.1000
     35 C          58.7652   90.7552    5.3855 C.3     1  UNL1        0.0299
     36 C          58.7155   89.2745    6.6200 C.3     1  UNL1        0.0524
     37 C          57.4193   89.3609    5.8700 C.3     1  UNL1        0.0049
     38 C          58.9195   88.1971    7.6435 C.3     1  UNL1        0.1200
     39 C          57.8272   87.2061    7.9171 C.3     1  UNL1        0.0322
     40 O          60.2157   88.1107    8.3934 O.3     1  UNL1       -0.3329
     41 O          60.5379   91.4266    5.7390 O.3     1  UNL1       -0.3556
     42 C          60.0424   92.0397    4.4629 C.3     1  UNL1        0.1739
     43 O          63.0548   91.3644   12.3542 O.3     1  UNL1       -0.3287
     44 C          64.3384   92.1002   12.6013 C.3     1  UNL1        0.2643
     45 O          64.9380   92.1213   13.9761 O.3     1  UNL1       -0.3311
     46 C          66.2216   92.8571   14.2232 C.3     1  UNL1        0.1194
     47 C          66.8213   92.8783   15.5980 C.3     1  UNL1        0.0322
     48 C          66.9055   93.5716   13.0956 C.3     1  UNL1        0.0482
     49 C          66.3059   93.5505   11.7208 C.3     1  UNL1        0.0921
     50 C          65.0224   92.8148   11.4736 C.3     1  UNL1        0.1815
     51 O          64.4227   92.7935   10.0989 O.3     1  UNL1       -0.3783
     52 H          63.6009   92.2784   10.1125 H       1  UNL1        0.2106
     53 N          66.9899   94.2651   10.5931 N.3     1  UNL1       -0.2692
     54 C          66.8481   95.7516   10.4514 C.3     1  UNL1        0.0897
     55 C          67.8158   93.4931    9.6073 C.3     1  UNL1        0.0897
@<TRIPOS>BOND
     1    29    30    1
     2     1    30    1
     3     1     2    1
     4     2     3    1
     5     3     4    2
     6     3     5    1
     7     5     6    1
     8     5     7    1
     9     7    31    1
    10    32    31    1
    11    32    33    1
    12    33    34    1
    13    34    35    1
    14    34    41    1
    15    41    42    1
    16    34    36    1
    17    36    37    1
    18    36    38    1
    19    38    39    1
    20    38    40    1
    21     7     8    1
    22     8     9    1
    23     8    10    1
    24    10    43    1
    25    44    43    1
    26    44    45    1
    27    45    46    1
    28    46    47    1
    29    46    48    1
    30    48    49    1
    31    49    53    1
    32    53    54    1
    33    53    55    1
    34    49    50    1
    35    50    51    1
    36    10    11    1
    37    11    12    1
    38    11    13    1
    39    11    14    1
    40    14    15    1
    41    15    16    1
    42    15    17    1
    43    17    18    2
    44    17    19    1
    45    19    20    1
    46    19    21    1
    47    21    22    1
    48    21    23    1
    49    23    24    1
    50    23    25    1
    51    23     1    1
    52    40    32    1
    53    50    44    1
    54    51    52    1
    55    13    26    1
    56    22    27    1
    57    25    28    1
