@<TRIPOS>MOLECULE
*****
 65 71 0 0 0
SMALL
GASTEIGER

@<TRIPOS>ATOM
      1 N          59.7544   95.6958   -3.9171 N.3     1  UNL1       -0.1862
      2 C          61.1651   96.1923   -3.8010 C.3     1  UNL1        0.1775
      3 C          61.9176   96.0195   -2.5149 C.2     1  UNL1        0.2452
      4 O          63.3283   96.5160   -2.3988 O.2     1  UNL1       -0.2732
      5 N          61.2594   95.3503   -1.3449 N.am    1  UNL1       -0.2541
      6 C          59.8487   94.8538   -1.4611 C.3     1  UNL1        0.1908
      7 C          59.1904   94.1845   -0.2911 C.3     1  UNL1        0.1359
      8 N          59.9429   94.0118    0.9950 N.am    1  UNL1       -0.2705
      9 C          61.3536   94.5082    1.1111 C.2     1  UNL1        0.2445
     10 O          62.1061   94.3354    2.3971 O.2     1  UNL1       -0.2731
     11 C          62.0118   95.1775   -0.0589 C.3     1  UNL1        0.1577
     12 N          59.0962   95.0266   -2.7471 N.am    1  UNL1       -0.1863
     13 C          57.6855   94.5301   -2.8632 C.2     1  UNL1        0.3191
     14 O          57.0273   93.8609   -1.6932 O.2     1  UNL1       -0.2512
     15 N          56.9330   94.7029   -4.1492 N.am    1  UNL1       -0.2836
     16 H          57.3651   95.1422   -4.9171 H       1  UNL1        0.1513
     17 C          55.5224   94.2065   -4.2654 C.3     1  UNL1        0.1177
     18 C          54.3830   95.0735   -3.8182 C.ar    1  UNL1       -0.0025
     19 C          53.6159   95.8811   -4.8228 C.ar    1  UNL1       -0.0026
     20 C          52.4765   96.7482   -4.3757 C.ar    1  UNL1       -0.0003
     21 C          52.1041   96.8076   -2.9239 C.ar    1  UNL1       -0.0000
     22 C          52.8711   95.9999   -1.9192 C.ar    1  UNL1       -0.0003
     23 C          54.0106   95.1329   -2.3663 C.ar    1  UNL1       -0.0026
     24 C          63.4225   95.6739    0.0572 C.3     1  UNL1        0.0556
     25 C          64.1091   95.6771    1.3909 C.ar    1  UNL1       -0.0198
     26 C          63.9509   96.8495    2.3131 C.ar    1  UNL1       -0.0011
     27 C          64.6375   96.8527    3.6467 C.ar    1  UNL1        0.0363
     28 C          65.4823   95.6835    4.0581 C.ar    1  UNL1        0.1337
     29 O          66.1689   95.6867    5.3917 O.3     1  UNL1       -0.5055
     30 C          65.6405   94.5111    3.1359 C.ar    1  UNL1        0.0363
     31 C          64.9539   94.5079    1.8023 C.ar    1  UNL1       -0.0011
     32 H          66.0701   96.4191    5.9678 H       1  UNL1        0.2922
     33 C          59.2847   93.3425    2.1650 C.3     1  UNL1        0.1217
     34 C          60.0720   92.4079    3.0348 C.ar    1  UNL1        0.0135
     35 C          61.5446   92.2343    2.8088 C.ar    1  UNL1       -0.0012
     36 C          62.3319   91.2997    3.6786 C.ar    1  UNL1       -0.0002
     37 C          61.6466   90.5386    4.7745 C.ar    1  UNL1        0.0016
     38 C          60.1739   90.7122    5.0005 C.ar    1  UNL1        0.0214
     39 C          59.2322   90.1008    5.9952 C.ar    1  UNL1        0.0722
     40 C          57.8629   90.6575    5.7401 C.ar    1  UNL1        0.0805
     41 N          57.9583   91.6130    4.5878 N.ar    1  UNL1       -0.3241
     42 C          56.8246   92.3970    3.9964 C.3     1  UNL1        0.1305
     43 C          59.3866   91.6468    4.1307 C.ar    1  UNL1        0.0577
     44 C          59.5960   89.1070    7.0584 C.2     1  UNL1        0.2510
     45 O          59.1770   87.6734    6.9199 O.2     1  UNL1       -0.2698
     46 N          60.3787   89.5469    8.2599 N.am    1  UNL1       -0.2791
     47 H          60.6537   90.4879    8.3508 H       1  UNL1        0.1552
     48 C          60.7425   88.5533    9.3231 C.ar    1  UNL1        0.0701
     49 C          61.6719   87.4200    9.0039 C.ar    1  UNL1        0.0191
     50 C          62.0358   86.4263   10.0670 C.ar    1  UNL1        0.0354
     51 C          61.4702   86.5659   11.4492 C.ar    1  UNL1        0.1286
     52 N          60.5408   87.6992   11.7684 N.ar    1  UNL1       -0.2281
     53 C          60.1769   88.6929   10.7053 C.ar    1  UNL1        0.1149
     54 N          61.8340   85.5723   12.5124 N.pl3   1  UNL1       -0.3169
     55 H          61.1421   85.2292   13.1230 H       1  UNL1        0.1482
     56 C          63.2520   85.1014   12.6453 C.3     1  UNL1        0.1057
     57 C          63.5613   83.8679   13.4408 C.3     1  UNL1        0.0936
     58 N          63.7602   82.5554   12.7424 N.3     1  UNL1       -0.2712
     59 C          63.1642   81.3035   13.3148 C.3     1  UNL1        0.0722
     60 C          61.7628   81.3166   13.8498 C.3     1  UNL1        0.0188
     61 C          64.5550   82.4947   11.4718 C.3     1  UNL1        0.0722
     62 C          63.9085   82.8481   10.1652 C.3     1  UNL1        0.0188
     63 C          59.0020   95.8686   -5.2031 C.3     1  UNL1        0.1188
     64 C          58.7227   94.4095   -7.3345 C.2     1  UNL1       -0.0034
     65 C          59.5608   95.3131   -6.4795 C.2     1  UNL1       -0.0071
@<TRIPOS>BOND
     1    64    65    2
     2    65    63    1
     3    63     1    1
     4     1     2    1
     5     2     3    1
     6     3     4    2
     7     3     5   am
     8     5     6    1
     9     6     7    1
    10     7     8    1
    11     8    33    1
    12    33    34    1
    13    34    35   ar
    14    35    36   ar
    15    36    37   ar
    16    37    38   ar
    17    38    39   ar
    18    39    44    1
    19    44    45    2
    20    44    46   am
    21    46    48    1
    22    48    49   ar
    23    49    50   ar
    24    50    51   ar
    25    51    54    1
    26    54    56    1
    27    56    57    1
    28    57    58    1
    29    58    59    1
    30    59    60    1
    31    58    61    1
    32    61    62    1
    33    51    52   ar
    34    52    53   ar
    35    39    40   ar
    36    40    41   ar
    37    41    42    1
    38    41    43   ar
    39     8     9   am
    40     9    10    2
    41     9    11    1
    42    11    24    1
    43    24    25    1
    44    25    26   ar
    45    26    27   ar
    46    27    28   ar
    47    28    29    1
    48    28    30   ar
    49    30    31   ar
    50     6    12    1
    51    12    13   am
    52    13    14    2
    53    13    15   am
    54    15    17    1
    55    17    18    1
    56    18    19   ar
    57    19    20   ar
    58    20    21   ar
    59    21    22   ar
    60    22    23   ar
    61    12     1    1
    62    23    18   ar
    63    11     5    1
    64    31    25   ar
    65    43    34   ar
    66    43    38   ar
    67    53    48   ar
    68    46    47    1
    69    54    55    1
    70    29    32    1
    71    15    16    1
@<TRIPOS>MOLECULE
*****
 65 71 0 0 0
SMALL
GASTEIGER

@<TRIPOS>ATOM
      1 N          62.5020   94.5805   -3.3975 N.3     1  UNL1       -0.1862
      2 C          61.3829   94.5358   -4.3953 C.3     1  UNL1        0.1775
      3 C          59.9752   94.3007   -3.9335 C.2     1  UNL1        0.2452
      4 O          58.8561   94.2561   -4.9314 O.2     1  UNL1       -0.2732
      5 N          59.6867   94.1103   -2.4739 N.am    1  UNL1       -0.2541
      6 C          60.8058   94.1549   -1.4761 C.3     1  UNL1        0.1908
      7 C          60.5172   93.9645   -0.0165 C.3     1  UNL1        0.1359
      8 N          59.1096   93.7294    0.4453 N.am    1  UNL1       -0.2705
      9 C          57.9905   93.6847   -0.5525 C.2     1  UNL1        0.2445
     10 O          56.5828   93.4496   -0.0907 O.2     1  UNL1       -0.2731
     11 C          58.2790   93.8752   -2.0121 C.3     1  UNL1        0.1577
     12 N          62.2134   94.3900   -1.9379 N.am    1  UNL1       -0.1863
     13 C          63.3325   94.4347   -0.9400 C.2     1  UNL1        0.3191
     14 O          63.0440   94.2442    0.5195 O.2     1  UNL1       -0.2512
     15 N          64.7402   94.6698   -1.4018 N.am    1  UNL1       -0.2836
     16 H          64.9295   94.7948   -2.3598 H       1  UNL1        0.1513
     17 C          65.8592   94.7144   -0.4041 C.3     1  UNL1        0.1177
     18 C          65.5765   95.0744    1.0244 C.ar    1  UNL1       -0.0025
     19 C          65.1442   94.0143    1.9935 C.ar    1  UNL1       -0.0026
     20 C          64.8615   94.3742    3.4220 C.ar    1  UNL1       -0.0003
     21 C          65.0111   95.7942    3.8813 C.ar    1  UNL1       -0.0000
     22 C          65.4435   96.8544    2.9122 C.ar    1  UNL1       -0.0003
     23 C          65.7262   96.4945    1.4837 C.ar    1  UNL1       -0.0026
     24 C          57.1599   93.8305   -3.0099 C.3     1  UNL1        0.0556
     25 C          56.4927   92.5260   -3.3307 C.ar    1  UNL1       -0.0198
     26 C          56.3156   91.4908   -2.2597 C.ar    1  UNL1       -0.0011
     27 C          55.6484   90.1863   -2.5805 C.ar    1  UNL1        0.0363
     28 C          55.1583   89.9168   -3.9723 C.ar    1  UNL1        0.1337
     29 O          54.4911   88.6122   -4.2930 O.3     1  UNL1       -0.5055
     30 C          55.3354   90.9519   -5.0434 C.ar    1  UNL1        0.0363
     31 C          56.0026   92.2565   -4.7226 C.ar    1  UNL1       -0.0011
     32 H          54.3804   87.9656   -3.6240 H       1  UNL1        0.2922
     33 C          58.8210   93.5389    1.9049 C.3     1  UNL1        0.1217
     34 C          59.6958   92.6439    2.7319 C.ar    1  UNL1        0.0135
     35 C          61.1627   92.5459    2.4345 C.ar    1  UNL1       -0.0012
     36 C          62.0375   91.6510    3.2614 C.ar    1  UNL1       -0.0002
     37 C          61.4453   90.8540    4.3856 C.ar    1  UNL1        0.0016
     38 C          59.9783   90.9519    4.6830 C.ar    1  UNL1        0.0214
     39 C          59.1180   90.2915    5.7191 C.ar    1  UNL1        0.0722
     40 C          57.7115   90.7783    5.5326 C.ar    1  UNL1        0.0805
     41 N          57.7026   91.7395    4.3812 N.ar    1  UNL1       -0.3241
     42 C          56.5033   92.4660    3.8484 C.3     1  UNL1        0.1305
     43 C          59.1036   91.8469    3.8561 C.ar    1  UNL1        0.0577
     44 C          59.5826   89.3155    6.7593 C.2     1  UNL1        0.2510
     45 O          59.5121   87.8416    6.4895 O.2     1  UNL1       -0.2698
     46 N          60.1177   89.8134    8.0691 N.am    1  UNL1       -0.2791
     47 H          60.1639   90.7808    8.2462 H       1  UNL1        0.1552
     48 C          60.5823   88.8376    9.1092 C.ar    1  UNL1        0.0701
     49 C          59.8752   87.5252    9.2753 C.ar    1  UNL1        0.0191
     50 C          60.3397   86.5493   10.3153 C.ar    1  UNL1        0.0354
     51 C          61.5113   86.8858   11.1894 C.ar    1  UNL1        0.1286
     52 N          62.2184   88.1982   11.0234 N.ar    1  UNL1       -0.2281
     53 C          61.7539   89.1741    9.9833 C.ar    1  UNL1        0.1149
     54 N          61.9759   85.9100   12.2295 N.pl3   1  UNL1       -0.3169
     55 H          61.3232   85.3383   12.6946 H       1  UNL1        0.1482
     56 C          63.4351   85.8051   12.5609 C.3     1  UNL1        0.1057
     57 C          64.0965   84.4600   12.6183 C.3     1  UNL1        0.0936
     58 N          63.2656   83.2221   12.7827 N.3     1  UNL1       -0.2712
     59 C          62.8786   82.7553   14.1546 C.3     1  UNL1        0.0722
     60 C          61.8782   81.6493   14.3162 C.3     1  UNL1        0.0188
     61 C          62.8216   82.4509   11.5751 C.3     1  UNL1        0.0722
     62 C          63.8269   82.0231   10.5472 C.3     1  UNL1        0.0188
     63 C          63.9096   94.8156   -3.8593 C.3     1  UNL1        0.1188
     64 C          64.5991   94.8632   -6.3637 C.2     1  UNL1       -0.0034
     65 C          64.4268   94.1103   -5.0779 C.2     1  UNL1       -0.0071
@<TRIPOS>BOND
     1    64    65    2
     2    65    63    1
     3    63     1    1
     4     1     2    1
     5     2     3    1
     6     3     4    2
     7     3     5   am
     8     5     6    1
     9     6     7    1
    10     7     8    1
    11     8    33    1
    12    33    34    1
    13    34    35   ar
    14    35    36   ar
    15    36    37   ar
    16    37    38   ar
    17    38    39   ar
    18    39    44    1
    19    44    45    2
    20    44    46   am
    21    46    48    1
    22    48    49   ar
    23    49    50   ar
    24    50    51   ar
    25    51    54    1
    26    54    56    1
    27    56    57    1
    28    57    58    1
    29    58    59    1
    30    59    60    1
    31    58    61    1
    32    61    62    1
    33    51    52   ar
    34    52    53   ar
    35    39    40   ar
    36    40    41   ar
    37    41    42    1
    38    41    43   ar
    39     8     9   am
    40     9    10    2
    41     9    11    1
    42    11    24    1
    43    24    25    1
    44    25    26   ar
    45    26    27   ar
    46    27    28   ar
    47    28    29    1
    48    28    30   ar
    49    30    31   ar
    50     6    12    1
    51    12    13   am
    52    13    14    2
    53    13    15   am
    54    15    17    1
    55    17    18    1
    56    18    19   ar
    57    19    20   ar
    58    20    21   ar
    59    21    22   ar
    60    22    23   ar
    61    12     1    1
    62    23    18   ar
    63    11     5    1
    64    31    25   ar
    65    43    34   ar
    66    43    38   ar
    67    53    48   ar
    68    46    47    1
    69    54    55    1
    70    29    32    1
    71    15    16    1
