@<TRIPOS>MOLECULE
*****
 42 45 0 0 0
SMALL
GASTEIGER

@<TRIPOS>ATOM
      1 C          64.0591   90.5984   12.4251 C.3     1  UNL1        0.0780
      2 C          63.5161   91.0555   11.1037 C.3     1  UNL1        0.0899
      3 C          65.1984   93.0186   10.8465 C.2     1  UNL1        0.4014
      4 O          65.2466   93.1726   12.3378 O.2     1  UNL1       -0.2264
      5 N          64.3332   91.9601   10.2295 N.am    1  UNL1       -0.2711
      6 H          64.3015   91.8590    9.2507 H       1  UNL1        0.1527
      7 O          66.0155   93.9232    9.9723 O.3     1  UNL1       -0.4419
      8 C          67.3586   92.3744   10.5174 C.3     1  UNL1        0.0437
      9 C          67.3836   93.5000    9.5263 C.3     1  UNL1        0.1378
     10 C          67.4087   94.6255    8.5351 C.3     1  UNL1        0.0437
     11 C          68.7518   93.0767    9.0803 C.3     1  UNL1        0.0437
     12 C          62.1560   90.6080   10.6564 C.3     1  UNL1        0.0485
     13 C          61.8923   89.1542   10.3976 C.2     1  UNL1       -0.0003
     14 C          62.5230   88.0013   11.1208 C.2     1  UNL1        0.0942
     15 N          61.9720   86.7327   10.5403 N.2     1  UNL1       -0.2482
     16 C          61.0008   87.1015    9.4583 C.2     1  UNL1        0.0631
     17 C          60.1549   86.2680    8.5420 C.3     1  UNL1        0.0717
     18 C          59.2597   86.9310    7.5375 C.2     1  UNL1       -0.0198
     19 C          59.2104   88.4276    7.4493 C.2     1  UNL1       -0.0042
     20 C          60.0563   89.2612    8.3656 C.2     1  UNL1        0.0006
     21 C          60.9515   88.5981    9.3701 C.2     1  UNL1        0.0115
     22 S          63.1819   90.6128   13.6417 S.3     1  UNL1       -0.1298
     23 C          63.7712   90.3423   14.9944 C.3     1  UNL1        0.1281
     24 C          63.7301   88.9565   15.5669 C.2     1  UNL1        0.2325
     25 O          63.1797   88.7297   16.9436 O.2     1  UNL1       -0.2742
     26 N          64.2396   87.7974   14.7625 N.am    1  UNL1       -0.3033
     27 H          64.6009   87.9462   13.8589 H       1  UNL1        0.1495
     28 C          64.1986   86.4115   15.3350 C.3     1  UNL1        0.0941
     29 C          64.8647   85.2802   14.6094 C.3     1  UNL1        0.0492
     30 C          64.0406   84.1562   14.0549 C.ar    1  UNL1       -0.0013
     31 C          63.5706   84.2022   12.6312 C.ar    1  UNL1       -0.0011
     32 C          62.7465   83.0782   12.0767 C.ar    1  UNL1        0.0204
     33 C          62.3923   81.9082   12.9460 C.ar    1  UNL1        0.0989
     34 N          62.8622   81.8623   14.3697 N.ar    1  UNL1       -0.2426
     35 C          63.6863   82.9863   14.9242 C.ar    1  UNL1        0.0946
     36 C          64.4015   91.4578   15.7746 C.3     1  UNL1        0.0463
     37 C          65.8277   91.8427   15.5140 C.ar    1  UNL1       -0.0208
     38 C          66.5012   92.8604   16.3861 C.ar    1  UNL1       -0.0042
     39 C          67.9273   93.2454   16.1255 C.ar    1  UNL1       -0.0003
     40 C          68.6799   92.6125   14.9928 C.ar    1  UNL1       -0.0000
     41 C          68.0064   91.5948   14.1207 C.ar    1  UNL1       -0.0003
     42 C          66.5802   91.2099   14.3813 C.ar    1  UNL1       -0.0042
@<TRIPOS>BOND
     1     8     9    1
     2     9    10    1
     3     9    11    1
     4     9     7    1
     5     7     3    1
     6     3     4    2
     7     3     5   am
     8     5     2    1
     9     2     1    1
    10     1    22    1
    11    22    23    1
    12    23    36    1
    13    36    37    1
    14    37    38   ar
    15    38    39   ar
    16    39    40   ar
    17    40    41   ar
    18    41    42   ar
    19    23    24    1
    20    24    25    2
    21    24    26   am
    22    26    28    1
    23    28    29    1
    24    29    30    1
    25    30    31   ar
    26    31    32   ar
    27    32    33   ar
    28    33    34   ar
    29    34    35   ar
    30     2    12    1
    31    12    13    1
    32    13    14    2
    33    14    15    1
    34    15    16    2
    35    16    17    1
    36    17    18    1
    37    18    19    2
    38    19    20    1
    39    20    21    2
    40    42    37   ar
    41    35    30   ar
    42    21    13    1
    43    21    16    1
    44     5     6    1
    45    26    27    1
@<TRIPOS>MOLECULE
*****
 42 45 0 0 0
SMALL
GASTEIGER

@<TRIPOS>ATOM
      1 C          61.7711   89.8561   11.6881 C.3     1  UNL1        0.0780
      2 C          63.0711   90.2610   12.3175 C.3     1  UNL1        0.0899
      3 C          63.5960   89.0459   14.5531 C.2     1  UNL1        0.4014
      4 O          62.5180   89.8350   15.2351 O.2     1  UNL1       -0.2264
      5 N          63.8725   89.2589   13.0943 N.am    1  UNL1       -0.2711
      6 H          64.5801   88.7410   12.6467 H       1  UNL1        0.1527
      7 O          64.3975   88.0437   15.3299 O.3     1  UNL1       -0.4419
      8 C          63.1576   87.4232   16.9354 C.3     1  UNL1        0.0437
      9 C          63.7731   86.7453   15.7473 C.3     1  UNL1        0.1378
     10 C          64.3886   86.0674   14.5592 C.3     1  UNL1        0.0437
     11 C          63.1486   85.4470   16.1648 C.3     1  UNL1        0.0437
     12 C          63.5696   91.6681   12.1701 C.3     1  UNL1        0.0485
     13 C          65.0236   91.9741   12.3762 C.2     1  UNL1       -0.0003
     14 C          66.0526   92.1340   11.2966 C.2     1  UNL1        0.0942
     15 N          67.3687   92.4327   11.9514 N.2     1  UNL1       -0.2482
     16 C          67.1530   92.4574   13.4356 C.2     1  UNL1        0.0631
     17 C          68.0892   92.7013   14.5819 C.3     1  UNL1        0.0717
     18 C          67.5760   92.6618   15.9908 C.2     1  UNL1       -0.0198
     19 C          66.1266   92.3784   16.2533 C.2     1  UNL1       -0.0042
     20 C          65.1904   92.1345   15.1070 C.2     1  UNL1        0.0006
     21 C          65.7037   92.1740   13.6982 C.2     1  UNL1        0.0115
     22 S          61.7420   89.3842   10.2646 S.3     1  UNL1       -0.1298
     23 C          60.9090   88.1958    9.8854 C.3     1  UNL1        0.1281
     24 C          60.0986   88.2199    8.6235 C.2     1  UNL1        0.2325
     25 O          59.3022   87.0144    8.2204 O.2     1  UNL1       -0.2742
     26 N          60.0846   89.4496    7.7645 N.am    1  UNL1       -0.3033
     27 H          60.6073   90.2408    8.0291 H       1  UNL1        0.1495
     28 C          59.2741   89.4737    6.5026 C.3     1  UNL1        0.0941
     29 C          58.8228   90.7829    5.9259 C.3     1  UNL1        0.0492
     30 C          59.6174   91.4349    4.8335 C.ar    1  UNL1       -0.0013
     31 C          61.0642   91.0855    4.6473 C.ar    1  UNL1       -0.0011
     32 C          61.8588   91.7375    3.5549 C.ar    1  UNL1        0.0204
     33 C          61.2065   92.7391    2.6485 C.ar    1  UNL1        0.0989
     34 N          59.7598   93.0885    2.8346 N.ar    1  UNL1       -0.2426
     35 C          58.9652   92.4365    3.9271 C.ar    1  UNL1        0.0946
     36 C          60.8864   86.9832   10.7683 C.3     1  UNL1        0.0463
     37 C          61.8722   85.8748   10.5454 C.ar    1  UNL1       -0.0208
     38 C          62.2788   84.9918   11.6878 C.ar    1  UNL1       -0.0042
     39 C          63.2646   83.8834   11.4650 C.ar    1  UNL1       -0.0003
     40 C          63.8438   83.6581   10.0998 C.ar    1  UNL1       -0.0000
     41 C          63.4372   84.5411    8.9574 C.ar    1  UNL1       -0.0003
     42 C          62.4514   85.6495    9.1803 C.ar    1  UNL1       -0.0042
@<TRIPOS>BOND
     1     8     9    1
     2     9    10    1
     3     9    11    1
     4     9     7    1
     5     7     3    1
     6     3     4    2
     7     3     5   am
     8     5     2    1
     9     2     1    1
    10     1    22    1
    11    22    23    1
    12    23    36    1
    13    36    37    1
    14    37    38   ar
    15    38    39   ar
    16    39    40   ar
    17    40    41   ar
    18    41    42   ar
    19    23    24    1
    20    24    25    2
    21    24    26   am
    22    26    28    1
    23    28    29    1
    24    29    30    1
    25    30    31   ar
    26    31    32   ar
    27    32    33   ar
    28    33    34   ar
    29    34    35   ar
    30     2    12    1
    31    12    13    1
    32    13    14    2
    33    14    15    1
    34    15    16    2
    35    16    17    1
    36    17    18    1
    37    18    19    2
    38    19    20    1
    39    20    21    2
    40    42    37   ar
    41    35    30   ar
    42    21    13    1
    43    21    16    1
    44     5     6    1
    45    26    27    1
@<TRIPOS>MOLECULE
*****
 42 45 0 0 0
SMALL
GASTEIGER

@<TRIPOS>ATOM
      1 C          63.2982   91.5047   11.9299 C.3     1  UNL1        0.0780
      2 C          64.5977   91.7163   12.6486 C.3     1  UNL1        0.0899
      3 C          66.2799   93.1771   11.3121 C.2     1  UNL1        0.4014
      4 O          66.4584   92.0651   10.3213 O.2     1  UNL1       -0.2264
      5 N          65.3496   93.0027   12.4757 N.am    1  UNL1       -0.2711
      6 H          65.2325   93.7325   13.1260 H       1  UNL1        0.1527
      7 O          67.0318   94.4635   11.1392 O.3     1  UNL1       -0.4419
      8 C          65.6525   96.0055   10.6706 C.3     1  UNL1        0.0437
      9 C          66.7739   95.3276    9.9406 C.3     1  UNL1        0.1378
     10 C          67.8954   94.6498    9.2106 C.3     1  UNL1        0.0437
     11 C          66.5160   96.1919    8.7421 C.3     1  UNL1        0.0437
     12 C          65.1454   90.6414   13.5401 C.3     1  UNL1        0.0485
     13 C          64.3979   90.2400   14.7771 C.2     1  UNL1       -0.0003
     14 C          63.8008   91.1732   15.7883 C.2     1  UNL1        0.0942
     15 N          63.1502   90.3447   16.8562 N.2     1  UNL1       -0.2482
     16 C          63.3452   88.8995   16.5050 C.2     1  UNL1        0.0631
     17 C          62.9202   87.6342   17.1892 C.3     1  UNL1        0.0717
     18 C          63.2663   86.3040   16.5885 C.2     1  UNL1       -0.0198
     19 C          64.0375   86.2393   15.3035 C.2     1  UNL1       -0.0042
     20 C          64.4625   87.5046   14.6193 C.2     1  UNL1        0.0006
     21 C          64.1163   88.8348   15.2200 C.2     1  UNL1        0.0115
     22 S          63.1869   90.4400   10.8792 S.3     1  UNL1       -0.1298
     23 C          62.0287   89.4870   10.8970 C.3     1  UNL1        0.1281
     24 C          60.7885   89.7991   10.1132 C.2     1  UNL1        0.2325
     25 O          59.7579   90.7303   10.6794 O.2     1  UNL1       -0.2742
     26 N          60.5790   89.1801    8.7630 N.am    1  UNL1       -0.3033
     27 H          61.2554   88.5689    8.3913 H       1  UNL1        0.1495
     28 C          59.3387   89.4922    7.9792 C.3     1  UNL1        0.0941
     29 C          59.3101   89.2614    6.4973 C.3     1  UNL1        0.0492
     30 C          59.4303   90.4222    5.5550 C.ar    1  UNL1       -0.0013
     31 C          60.7597   90.7619    4.9491 C.ar    1  UNL1       -0.0011
     32 C          60.8800   91.9227    4.0067 C.ar    1  UNL1        0.0204
     33 C          59.6707   92.7440    3.6703 C.ar    1  UNL1        0.0989
     34 N          58.3413   92.4044    4.2763 N.ar    1  UNL1       -0.2426
     35 C          58.2210   91.2435    5.2186 C.ar    1  UNL1        0.0946
     36 C          62.1108   88.2217   11.6986 C.3     1  UNL1        0.0463
     37 C          62.4239   86.9219   11.0185 C.ar    1  UNL1       -0.0208
     38 C          62.6002   85.6736   11.8313 C.ar    1  UNL1       -0.0042
     39 C          62.9133   84.3738   11.1511 C.ar    1  UNL1       -0.0003
     40 C          63.0501   84.3225    9.6583 C.ar    1  UNL1       -0.0000
     41 C          62.8738   85.5708    8.8456 C.ar    1  UNL1       -0.0003
     42 C          62.5607   86.8706    9.5257 C.ar    1  UNL1       -0.0042
@<TRIPOS>BOND
     1     8     9    1
     2     9    10    1
     3     9    11    1
     4     9     7    1
     5     7     3    1
     6     3     4    2
     7     3     5   am
     8     5     2    1
     9     2     1    1
    10     1    22    1
    11    22    23    1
    12    23    36    1
    13    36    37    1
    14    37    38   ar
    15    38    39   ar
    16    39    40   ar
    17    40    41   ar
    18    41    42   ar
    19    23    24    1
    20    24    25    2
    21    24    26   am
    22    26    28    1
    23    28    29    1
    24    29    30    1
    25    30    31   ar
    26    31    32   ar
    27    32    33   ar
    28    33    34   ar
    29    34    35   ar
    30     2    12    1
    31    12    13    1
    32    13    14    2
    33    14    15    1
    34    15    16    2
    35    16    17    1
    36    17    18    1
    37    18    19    2
    38    19    20    1
    39    20    21    2
    40    42    37   ar
    41    35    30   ar
    42    21    13    1
    43    21    16    1
    44     5     6    1
    45    26    27    1
@<TRIPOS>MOLECULE
*****
 42 45 0 0 0
SMALL
GASTEIGER

@<TRIPOS>ATOM
      1 C          63.8652   90.4761   12.4196 C.3     1  UNL1        0.0780
      2 C          63.3018   91.0927   11.1737 C.3     1  UNL1        0.0899
      3 C          65.1395   92.8917   10.8047 C.2     1  UNL1        0.4014
      4 O          65.1914   93.1419   12.2828 O.2     1  UNL1       -0.2264
      5 N          64.1947   91.8672   10.2502 N.am    1  UNL1       -0.2711
      6 H          64.1606   91.7029    9.2801 H       1  UNL1        0.1527
      7 O          66.0325   93.6662    9.8811 O.3     1  UNL1       -0.4419
      8 C          67.2558   92.1068   10.6374 C.3     1  UNL1        0.0437
      9 C          67.4291   93.1891    9.6133 C.3     1  UNL1        0.1378
     10 C          67.6025   94.2713    8.5893 C.3     1  UNL1        0.0437
     11 C          68.8257   92.7119    9.3456 C.3     1  UNL1        0.0437
     12 C          61.8452   90.9350   10.8514 C.3     1  UNL1        0.0485
     13 C          61.3731   89.7381   10.0803 C.2     1  UNL1       -0.0003
     14 C          60.5102   89.7637    8.8536 C.2     1  UNL1        0.0942
     15 N          60.2849   88.3469    8.4158 N.2     1  UNL1       -0.2482
     16 C          61.0085   87.4455    9.3718 C.2     1  UNL1        0.0631
     17 C          61.1418   85.9530    9.4385 C.3     1  UNL1        0.0717
     18 C          61.9478   85.3203   10.5340 C.2     1  UNL1       -0.0198
     19 C          62.6204   86.1801   11.5627 C.2     1  UNL1       -0.0042
     20 C          62.4870   87.6726   11.4960 C.2     1  UNL1        0.0006
     21 C          61.6811   88.3054   10.4006 C.2     1  UNL1        0.0115
     22 S          63.0281   90.3965   13.6617 S.3     1  UNL1       -0.1298
     23 C          63.6781   90.1401   14.9890 C.3     1  UNL1        0.1281
     24 C          63.7330   88.7463   15.5405 C.2     1  UNL1        0.2325
     25 O          63.2489   88.4711   16.9332 O.2     1  UNL1       -0.2742
     26 N          64.2721   87.6275   14.6991 N.am    1  UNL1       -0.3033
     27 H          64.5899   87.8081   13.7849 H       1  UNL1        0.1495
     28 C          64.3270   86.2337   15.2506 C.3     1  UNL1        0.0941
     29 C          64.8875   85.1191   14.4177 C.3     1  UNL1        0.0492
     30 C          64.0210   83.9529   14.0445 C.ar    1  UNL1       -0.0013
     31 C          64.3123   83.1706   12.7983 C.ar    1  UNL1       -0.0011
     32 C          63.4458   82.0044   12.4251 C.ar    1  UNL1        0.0204
     33 C          62.2880   81.6206   13.2981 C.ar    1  UNL1        0.0989
     34 N          61.9968   82.4029   14.5443 N.ar    1  UNL1       -0.2426
     35 C          62.8632   83.5691   14.9175 C.ar    1  UNL1        0.0946
     36 C          64.2733   91.2777   15.7649 C.3     1  UNL1        0.0463
     37 C          65.6782   91.7225   15.4850 C.ar    1  UNL1       -0.0208
     38 C          66.2983   92.8118   16.3090 C.ar    1  UNL1       -0.0042
     39 C          67.7032   93.2566   16.0292 C.ar    1  UNL1       -0.0003
     40 C          68.4880   92.6122   14.9252 C.ar    1  UNL1       -0.0000
     41 C          67.8679   91.5230   14.1011 C.ar    1  UNL1       -0.0003
     42 C          66.4630   91.0781   14.3810 C.ar    1  UNL1       -0.0042
@<TRIPOS>BOND
     1     8     9    1
     2     9    10    1
     3     9    11    1
     4     9     7    1
     5     7     3    1
     6     3     4    2
     7     3     5   am
     8     5     2    1
     9     2     1    1
    10     1    22    1
    11    22    23    1
    12    23    36    1
    13    36    37    1
    14    37    38   ar
    15    38    39   ar
    16    39    40   ar
    17    40    41   ar
    18    41    42   ar
    19    23    24    1
    20    24    25    2
    21    24    26   am
    22    26    28    1
    23    28    29    1
    24    29    30    1
    25    30    31   ar
    26    31    32   ar
    27    32    33   ar
    28    33    34   ar
    29    34    35   ar
    30     2    12    1
    31    12    13    1
    32    13    14    2
    33    14    15    1
    34    15    16    2
    35    16    17    1
    36    17    18    1
    37    18    19    2
    38    19    20    1
    39    20    21    2
    40    42    37   ar
    41    35    30   ar
    42    21    13    1
    43    21    16    1
    44     5     6    1
    45    26    27    1
@<TRIPOS>MOLECULE
*****
 42 45 0 0 0
SMALL
GASTEIGER

@<TRIPOS>ATOM
      1 C          63.6714   91.1805   11.6609 C.3     1  UNL1        0.0780
      2 C          64.7883   91.6515   12.5445 C.3     1  UNL1        0.0899
      3 C          66.3598   93.3107   11.3086 C.2     1  UNL1        0.4014
      4 O          66.8191   92.2036   10.4066 O.2     1  UNL1       -0.2264
      5 N          65.3444   93.0346   12.3775 N.am    1  UNL1       -0.2711
      6 H          65.0430   93.7611   12.9696 H       1  UNL1        0.1527
      7 O          66.9160   94.6937   11.1416 O.3     1  UNL1       -0.4419
      8 C          67.8494   94.7343    9.2371 C.3     1  UNL1        0.0437
      9 C          66.6866   95.4451    9.8638 C.3     1  UNL1        0.1378
     10 C          65.5238   96.1558   10.4905 C.3     1  UNL1        0.0437
     11 C          66.4572   96.1964    8.5860 C.3     1  UNL1        0.0437
     12 C          65.3490   90.7395   13.5952 C.3     1  UNL1        0.0485
     13 C          64.5296   90.3937   14.8031 C.2     1  UNL1       -0.0003
     14 C          63.9115   91.3710   15.7585 C.2     1  UNL1        0.0942
     15 N          63.1843   90.5912   16.8135 N.2     1  UNL1       -0.2482
     16 C          63.3530   89.1319   16.5102 C.2     1  UNL1        0.0631
     17 C          62.8570   87.8985   17.2048 C.3     1  UNL1        0.0717
     18 C          63.1923   86.5430   16.6570 C.2     1  UNL1       -0.0198
     19 C          64.0237   86.4209   15.4145 C.2     1  UNL1       -0.0042
     20 C          64.5198   87.6544   14.7198 C.2     1  UNL1        0.0006
     21 C          64.1844   89.0098   15.2677 C.2     1  UNL1        0.0115
     22 S          62.6751   90.1855   12.1777 S.3     1  UNL1       -0.1298
     23 C          62.0254   89.2161   11.2352 C.3     1  UNL1        0.1281
     24 C          61.6724   87.8359   11.7044 C.2     1  UNL1        0.2325
     25 O          60.2397   87.4756   11.9645 O.2     1  UNL1       -0.2742
     26 N          62.7521   86.8158   11.9135 N.am    1  UNL1       -0.3033
     27 H          63.6924   87.0522   11.7428 H       1  UNL1        0.1495
     28 C          62.3991   85.4355   12.3828 C.3     1  UNL1        0.0941
     29 C          63.3251   84.2889   12.1040 C.3     1  UNL1        0.0492
     30 C          62.9875   82.9144   12.6008 C.ar    1  UNL1       -0.0013
     31 C          63.0638   81.7406   11.6700 C.ar    1  UNL1       -0.0011
     32 C          62.7262   80.3662   12.1668 C.ar    1  UNL1        0.0204
     33 C          62.3124   80.1654   13.5946 C.ar    1  UNL1        0.0989
     34 N          62.2362   81.3391   14.5254 N.ar    1  UNL1       -0.2426
     35 C          62.5737   82.7136   14.0286 C.ar    1  UNL1        0.0946
     36 C          61.7287   89.6271    9.8233 C.3     1  UNL1        0.0463
     37 C          60.9136   88.7323    8.9373 C.ar    1  UNL1       -0.0208
     38 C          61.2341   87.2696    8.8500 C.ar    1  UNL1       -0.0042
     39 C          60.4190   86.3748    7.9639 C.ar    1  UNL1       -0.0003
     40 C          59.2836   86.9429    7.1652 C.ar    1  UNL1       -0.0000
     41 C          58.9631   88.4056    7.2525 C.ar    1  UNL1       -0.0003
     42 C          59.7782   89.3004    8.1386 C.ar    1  UNL1       -0.0042
@<TRIPOS>BOND
     1     8     9    1
     2     9    10    1
     3     9    11    1
     4     9     7    1
     5     7     3    1
     6     3     4    2
     7     3     5   am
     8     5     2    1
     9     2     1    1
    10     1    22    1
    11    22    23    1
    12    23    36    1
    13    36    37    1
    14    37    38   ar
    15    38    39   ar
    16    39    40   ar
    17    40    41   ar
    18    41    42   ar
    19    23    24    1
    20    24    25    2
    21    24    26   am
    22    26    28    1
    23    28    29    1
    24    29    30    1
    25    30    31   ar
    26    31    32   ar
    27    32    33   ar
    28    33    34   ar
    29    34    35   ar
    30     2    12    1
    31    12    13    1
    32    13    14    2
    33    14    15    1
    34    15    16    2
    35    16    17    1
    36    17    18    1
    37    18    19    2
    38    19    20    1
    39    20    21    2
    40    42    37   ar
    41    35    30   ar
    42    21    13    1
    43    21    16    1
    44     5     6    1
    45    26    27    1
@<TRIPOS>MOLECULE
*****
 42 45 0 0 0
SMALL
GASTEIGER

@<TRIPOS>ATOM
      1 C          63.6634   91.3529   12.4894 C.3     1  UNL1        0.0780
      2 C          63.9278   91.5602   11.0275 C.3     1  UNL1        0.0899
      3 C          66.0327   93.0444   11.3686 C.2     1  UNL1        0.4014
      4 O          65.4374   93.5991   12.6287 O.2     1  UNL1       -0.2264
      5 N          65.2779   92.0250   10.5680 N.am    1  UNL1       -0.2711
      6 H          65.6687   91.6609    9.7410 H       1  UNL1        0.1527
      7 O          67.3829   93.5092   10.9092 O.3     1  UNL1       -0.4419
      8 C          66.7312   95.3439   10.0672 C.3     1  UNL1        0.0437
      9 C          67.5322   94.1757    9.5737 C.3     1  UNL1        0.1378
     10 C          68.3332   93.0074    9.0802 C.3     1  UNL1        0.0437
     11 C          67.6815   94.8423    8.2383 C.3     1  UNL1        0.0437
     12 C          62.8420   91.3028   10.0250 C.3     1  UNL1        0.0485
     13 C          61.7362   90.3419   10.3473 C.2     1  UNL1       -0.0003
     14 C          60.4173   90.6922   10.9700 C.2     1  UNL1        0.0942
     15 N          59.6211   89.4288   11.1109 N.2     1  UNL1       -0.2482
     16 C          60.4479   88.2976   10.5753 C.2     1  UNL1        0.0631
     17 C          60.1794   86.8267   10.4564 C.3     1  UNL1        0.0717
     18 C          61.2181   85.9201    9.8655 C.2     1  UNL1       -0.0198
     19 C          62.5253   86.4844    9.3935 C.2     1  UNL1       -0.0042
     20 C          62.7938   87.9554    9.5124 C.2     1  UNL1        0.0006
     21 C          61.7551   88.8620   10.1033 C.2     1  UNL1        0.0115
     22 S          63.8573   89.9974   13.1017 S.3     1  UNL1       -0.1298
     23 C          64.0623   89.8654   14.5817 C.3     1  UNL1        0.1281
     24 C          63.8870   88.5326   15.2473 C.2     1  UNL1        0.2325
     25 O          63.2614   88.4503   16.6081 O.2     1  UNL1       -0.2742
     26 N          64.3374   87.2821   14.5520 N.am    1  UNL1       -0.3033
     27 H          64.7480   87.3361   13.6588 H       1  UNL1        0.1495
     28 C          64.1621   85.9494   15.2175 C.3     1  UNL1        0.0941
     29 C          64.8263   84.7322   14.6454 C.3     1  UNL1        0.0492
     30 C          64.0464   83.7910   13.7760 C.ar    1  UNL1       -0.0013
     31 C          64.0030   84.0028   12.2917 C.ar    1  UNL1       -0.0011
     32 C          63.2231   83.0616   11.4222 C.ar    1  UNL1        0.0204
     33 C          62.4866   81.9085   12.0371 C.ar    1  UNL1        0.0989
     34 N          62.5301   81.6967   13.5214 N.ar    1  UNL1       -0.2426
     35 C          63.3099   82.6379   14.3908 C.ar    1  UNL1        0.0946
     36 C          64.4426   91.0663   15.3963 C.3     1  UNL1        0.0463
     37 C          65.8294   91.6298   15.2992 C.ar    1  UNL1       -0.0208
     38 C          66.2608   92.7247   16.2293 C.ar    1  UNL1       -0.0042
     39 C          67.6476   93.2881   16.1323 C.ar    1  UNL1       -0.0003
     40 C          68.6028   92.7567   15.1051 C.ar    1  UNL1       -0.0000
     41 C          68.1713   91.6618   14.1751 C.ar    1  UNL1       -0.0003
     42 C          66.7846   91.0983   14.2721 C.ar    1  UNL1       -0.0042
@<TRIPOS>BOND
     1     8     9    1
     2     9    10    1
     3     9    11    1
     4     9     7    1
     5     7     3    1
     6     3     4    2
     7     3     5   am
     8     5     2    1
     9     2     1    1
    10     1    22    1
    11    22    23    1
    12    23    36    1
    13    36    37    1
    14    37    38   ar
    15    38    39   ar
    16    39    40   ar
    17    40    41   ar
    18    41    42   ar
    19    23    24    1
    20    24    25    2
    21    24    26   am
    22    26    28    1
    23    28    29    1
    24    29    30    1
    25    30    31   ar
    26    31    32   ar
    27    32    33   ar
    28    33    34   ar
    29    34    35   ar
    30     2    12    1
    31    12    13    1
    32    13    14    2
    33    14    15    1
    34    15    16    2
    35    16    17    1
    36    17    18    1
    37    18    19    2
    38    19    20    1
    39    20    21    2
    40    42    37   ar
    41    35    30   ar
    42    21    13    1
    43    21    16    1
    44     5     6    1
    45    26    27    1
@<TRIPOS>MOLECULE
*****
 42 45 0 0 0
SMALL
GASTEIGER

@<TRIPOS>ATOM
      1 C          63.1911   88.6888   11.6617 C.3     1  UNL1        0.0780
      2 C          62.4970   87.3734   11.4668 C.3     1  UNL1        0.0899
      3 C          60.0999   87.7176   10.5258 C.2     1  UNL1        0.4014
      4 O          59.6955   88.3923   11.8030 O.2     1  UNL1       -0.2264
      5 N          61.5007   87.2082   10.3577 N.am    1  UNL1       -0.2711
      6 H          61.7661   86.7654    9.5194 H       1  UNL1        0.1527
      7 O          59.1036   87.5524    9.4168 O.3     1  UNL1       -0.4419
      8 C          58.9741   86.8779    7.4097 C.3     1  UNL1        0.0437
      9 C          59.3688   88.1640    8.0731 C.3     1  UNL1        0.1378
     10 C          59.7635   89.4502    8.7364 C.3     1  UNL1        0.0437
     11 C          59.6340   88.7756    6.7293 C.3     1  UNL1        0.0437
     12 C          62.7994   86.2231   12.3809 C.3     1  UNL1        0.0485
     13 C          62.9838   84.8454   11.8171 C.2     1  UNL1       -0.0003
     14 C          63.4412   84.5155   10.4271 C.2     1  UNL1        0.0942
     15 N          63.4833   83.0220   10.2952 N.2     1  UNL1       -0.2482
     16 C          63.0519   82.4287   11.6036 C.2     1  UNL1        0.0631
     17 C          62.9003   81.0079   12.0601 C.3     1  UNL1        0.0717
     18 C          62.4400   80.7141   13.4571 C.2     1  UNL1       -0.0198
     19 C          62.1313   81.8411   14.3977 C.2     1  UNL1       -0.0042
     20 C          62.2829   83.2619   13.9412 C.2     1  UNL1        0.0006
     21 C          62.7432   83.5557   12.5442 C.2     1  UNL1        0.0115
     22 S          62.8007   89.5808   12.8027 S.3     1  UNL1       -0.1298
     23 C          63.8532   90.3399   13.5551 C.3     1  UNL1        0.1281
     24 C          64.7042   91.3486   12.8422 C.2     1  UNL1        0.2325
     25 O          64.3226   91.8153   11.4688 O.2     1  UNL1       -0.2742
     26 N          65.9371   91.8906   13.5029 N.am    1  UNL1       -0.3033
     27 H          66.1876   91.5843   14.4044 H       1  UNL1        0.1495
     28 C          66.7881   92.8993   12.7900 C.3     1  UNL1        0.0941
     29 C          66.1933   94.2028   12.3461 C.3     1  UNL1        0.0492
     30 C          66.5742   94.7875   11.0184 C.ar    1  UNL1       -0.0013
     31 C          66.4965   96.2697   10.8015 C.ar    1  UNL1       -0.0011
     32 C          66.8775   96.8544    9.4738 C.ar    1  UNL1        0.0204
     33 C          67.3362   95.9570    8.3628 C.ar    1  UNL1        0.0989
     34 N          67.4138   94.4748    8.5797 N.ar    1  UNL1       -0.2426
     35 C          67.0329   93.8901    9.9074 C.ar    1  UNL1        0.0946
     36 C          64.0545   90.0903   15.0205 C.3     1  UNL1        0.0463
     37 C          63.8443   88.7158   15.5831 C.ar    1  UNL1       -0.0208
     38 C          62.9992   88.5279   16.8081 C.ar    1  UNL1       -0.0042
     39 C          62.7890   87.1533   17.3706 C.ar    1  UNL1       -0.0003
     40 C          63.4238   85.9668   16.7081 C.ar    1  UNL1       -0.0000
     41 C          64.2688   86.1546   15.4831 C.ar    1  UNL1       -0.0003
     42 C          64.4791   87.5292   14.9206 C.ar    1  UNL1       -0.0042
@<TRIPOS>BOND
     1     8     9    1
     2     9    10    1
     3     9    11    1
     4     9     7    1
     5     7     3    1
     6     3     4    2
     7     3     5   am
     8     5     2    1
     9     2     1    1
    10     1    22    1
    11    22    23    1
    12    23    36    1
    13    36    37    1
    14    37    38   ar
    15    38    39   ar
    16    39    40   ar
    17    40    41   ar
    18    41    42   ar
    19    23    24    1
    20    24    25    2
    21    24    26   am
    22    26    28    1
    23    28    29    1
    24    29    30    1
    25    30    31   ar
    26    31    32   ar
    27    32    33   ar
    28    33    34   ar
    29    34    35   ar
    30     2    12    1
    31    12    13    1
    32    13    14    2
    33    14    15    1
    34    15    16    2
    35    16    17    1
    36    17    18    1
    37    18    19    2
    38    19    20    1
    39    20    21    2
    40    42    37   ar
    41    35    30   ar
    42    21    13    1
    43    21    16    1
    44     5     6    1
    45    26    27    1
@<TRIPOS>MOLECULE
*****
 42 45 0 0 0
SMALL
GASTEIGER

@<TRIPOS>ATOM
      1 C          62.6885   89.6035   13.0052 C.3     1  UNL1        0.0780
      2 C          63.7521   89.3814   14.0394 C.3     1  UNL1        0.0899
      3 C          63.8266   87.4025   15.7211 C.2     1  UNL1        0.4014
      4 O          63.0421   88.2132   16.7097 O.2     1  UNL1       -0.2264
      5 N          64.1816   87.9866   14.3860 N.am    1  UNL1       -0.2711
      6 H          64.6965   87.4546   13.7371 H       1  UNL1        0.1527
      7 O          64.2561   86.0077   16.0677 O.3     1  UNL1       -0.4419
      8 C          62.3367   85.1752   16.4177 C.3     1  UNL1        0.0437
      9 C          63.4952   84.8329   15.5286 C.3     1  UNL1        0.1378
     10 C          64.6537   84.4905   14.6394 C.3     1  UNL1        0.0437
     11 C          62.7342   83.6581   14.9895 C.3     1  UNL1        0.0437
     12 C          64.3862   90.5542   14.7269 C.3     1  UNL1        0.0485
     13 C          65.5767   91.2296   14.1133 C.2     1  UNL1       -0.0003
     14 C          66.9308   91.3726   14.7425 C.2     1  UNL1        0.0942
     15 N          67.8130   92.1119   13.7807 N.2     1  UNL1       -0.2482
     16 C          67.0041   92.4259   12.5571 C.2     1  UNL1        0.0631
     17 C          67.3476   93.1379   11.2824 C.3     1  UNL1        0.0717
     18 C          66.3089   93.3046   10.2132 C.2     1  UNL1       -0.0198
     19 C          64.9267   92.7593   10.4187 C.2     1  UNL1       -0.0042
     20 C          64.5833   92.0473   11.6935 C.2     1  UNL1        0.0006
     21 C          65.6220   91.8806   12.7627 C.2     1  UNL1        0.0115
     22 S          62.7862   88.9246   11.6712 S.3     1  UNL1       -0.1298
     23 C          61.5612   88.3324   11.0397 C.3     1  UNL1        0.1281
     24 C          60.6909   89.1757   10.1557 C.2     1  UNL1        0.2325
     25 O          60.2682   90.5433   10.6038 O.2     1  UNL1       -0.2742
     26 N          60.2433   88.6513    8.8235 N.am    1  UNL1       -0.3033
     27 H          60.5207   87.7536    8.5294 H       1  UNL1        0.1495
     28 C          59.3729   89.4945    7.9396 C.3     1  UNL1        0.0941
     29 C          59.3672   89.2684    6.4567 C.3     1  UNL1        0.0492
     30 C          59.4560   90.4362    5.5196 C.ar    1  UNL1       -0.0013
     31 C          60.7754   90.8130    4.9136 C.ar    1  UNL1       -0.0011
     32 C          60.8642   91.9809    3.9765 C.ar    1  UNL1        0.0204
     33 C          59.6335   92.7720    3.6452 C.ar    1  UNL1        0.0989
     34 N          58.3142   92.3951    4.2512 N.ar    1  UNL1       -0.2426
     35 C          58.2254   91.2273    5.1883 C.ar    1  UNL1        0.0946
     36 C          61.2066   86.8969   11.2921 C.3     1  UNL1        0.0463
     37 C          62.0752   85.8026   10.7461 C.ar    1  UNL1       -0.0208
     38 C          62.4180   85.7750    9.2861 C.ar    1  UNL1       -0.0042
     39 C          63.2866   84.6808    8.7401 C.ar    1  UNL1       -0.0003
     40 C          63.8124   83.6141    9.6543 C.ar    1  UNL1       -0.0000
     41 C          63.4697   83.6417   11.1143 C.ar    1  UNL1       -0.0003
     42 C          62.6010   84.7360   11.6603 C.ar    1  UNL1       -0.0042
@<TRIPOS>BOND
     1     8     9    1
     2     9    10    1
     3     9    11    1
     4     9     7    1
     5     7     3    1
     6     3     4    2
     7     3     5   am
     8     5     2    1
     9     2     1    1
    10     1    22    1
    11    22    23    1
    12    23    36    1
    13    36    37    1
    14    37    38   ar
    15    38    39   ar
    16    39    40   ar
    17    40    41   ar
    18    41    42   ar
    19    23    24    1
    20    24    25    2
    21    24    26   am
    22    26    28    1
    23    28    29    1
    24    29    30    1
    25    30    31   ar
    26    31    32   ar
    27    32    33   ar
    28    33    34   ar
    29    34    35   ar
    30     2    12    1
    31    12    13    1
    32    13    14    2
    33    14    15    1
    34    15    16    2
    35    16    17    1
    36    17    18    1
    37    18    19    2
    38    19    20    1
    39    20    21    2
    40    42    37   ar
    41    35    30   ar
    42    21    13    1
    43    21    16    1
    44     5     6    1
    45    26    27    1
@<TRIPOS>MOLECULE
*****
 42 45 0 0 0
SMALL
GASTEIGER

@<TRIPOS>ATOM
      1 C          62.7109   89.0376   13.6640 C.3     1  UNL1        0.0780
      2 C          63.7855   89.4685   14.6177 C.3     1  UNL1        0.0899
      3 C          64.8436   91.8160   14.9631 C.2     1  UNL1        0.4014
      4 O          63.9270   92.0581   16.1255 O.2     1  UNL1       -0.2264
      5 N          64.7728   90.5212   14.2092 N.am    1  UNL1       -0.2711
      6 H          65.3744   90.3623   13.4463 H       1  UNL1        0.1527
      7 O          65.8310   92.8688   14.5546 O.3     1  UNL1       -0.4419
      8 C          67.4455   92.3975   13.2618 C.3     1  UNL1        0.0437
      9 C          67.3006   92.6297   14.7366 C.3     1  UNL1        0.1378
     10 C          67.1557   92.8619   16.2114 C.3     1  UNL1        0.0437
     11 C          68.7701   92.3906   14.9185 C.3     1  UNL1        0.0437
     12 C          63.8727   88.8466   15.9801 C.3     1  UNL1        0.0485
     13 C          63.2590   87.5011   16.2310 C.2     1  UNL1       -0.0003
     14 C          62.0655   87.2240   17.0964 C.2     1  UNL1        0.0942
     15 N          61.8000   85.7481   17.0608 N.2     1  UNL1       -0.2482
     16 C          62.8293   85.1131   16.1734 C.2     1  UNL1        0.0631
     17 C          63.0619   83.6884   15.7662 C.3     1  UNL1        0.0717
     18 C          64.1963   83.3471   14.8461 C.2     1  UNL1       -0.0198
     19 C          65.0980   84.4305   14.3332 C.2     1  UNL1       -0.0042
     20 C          64.8654   85.8553   14.7405 C.2     1  UNL1        0.0006
     21 C          63.7310   86.1966   15.6606 C.2     1  UNL1        0.0115
     22 S          63.0736   88.5817   12.2818 S.3     1  UNL1       -0.1298
     23 C          61.9959   88.1965   11.3122 C.3     1  UNL1        0.1281
     24 C          61.4989   89.1939   10.3081 C.2     1  UNL1        0.2325
     25 O          62.0879   90.5727   10.2657 O.2     1  UNL1       -0.2742
     26 N          60.4128   88.8124    9.3464 N.am    1  UNL1       -0.3033
     27 H          60.0262   87.9074    9.3742 H       1  UNL1        0.1495
     28 C          59.9158   89.8098    8.3423 C.3     1  UNL1        0.0941
     29 C          59.5385   89.3601    6.9619 C.3     1  UNL1        0.0492
     30 C          59.3725   90.3684    5.8639 C.ar    1  UNL1       -0.0013
     31 C          60.5730   90.8669    5.1155 C.ar    1  UNL1       -0.0011
     32 C          60.4070   91.8752    4.0174 C.ar    1  UNL1        0.0204
     33 C          59.0404   92.3850    3.6677 C.ar    1  UNL1        0.0989
     34 N          57.8398   91.8865    4.4160 N.ar    1  UNL1       -0.2426
     35 C          58.0058   90.8782    5.5141 C.ar    1  UNL1        0.0946
     36 C          61.4152   86.8138   11.3466 C.3     1  UNL1        0.0463
     37 C          62.2172   85.6507   10.8427 C.ar    1  UNL1       -0.0208
     38 C          62.6553   85.6069    9.4088 C.ar    1  UNL1       -0.0042
     39 C          63.4574   84.4438    8.9048 C.ar    1  UNL1       -0.0003
     40 C          63.8212   83.3246    9.8349 C.ar    1  UNL1       -0.0000
     41 C          63.3831   83.3685   11.2688 C.ar    1  UNL1       -0.0003
     42 C          62.5811   84.5316   11.7727 C.ar    1  UNL1       -0.0042
@<TRIPOS>BOND
     1     8     9    1
     2     9    10    1
     3     9    11    1
     4     9     7    1
     5     7     3    1
     6     3     4    2
     7     3     5   am
     8     5     2    1
     9     2     1    1
    10     1    22    1
    11    22    23    1
    12    23    36    1
    13    36    37    1
    14    37    38   ar
    15    38    39   ar
    16    39    40   ar
    17    40    41   ar
    18    41    42   ar
    19    23    24    1
    20    24    25    2
    21    24    26   am
    22    26    28    1
    23    28    29    1
    24    29    30    1
    25    30    31   ar
    26    31    32   ar
    27    32    33   ar
    28    33    34   ar
    29    34    35   ar
    30     2    12    1
    31    12    13    1
    32    13    14    2
    33    14    15    1
    34    15    16    2
    35    16    17    1
    36    17    18    1
    37    18    19    2
    38    19    20    1
    39    20    21    2
    40    42    37   ar
    41    35    30   ar
    42    21    13    1
    43    21    16    1
    44     5     6    1
    45    26    27    1
