@<TRIPOS>MOLECULE
*****
 33 36 0 0 0
SMALL
GASTEIGER

@<TRIPOS>ATOM
      1 N          64.9027   90.7568   13.8449 N.pl3   1  UNL1       -0.2860
      2 C          66.6364   92.8177   10.2398 C.ar    1  UNL1        0.0715
      3 C          65.1553   92.6036   10.3413 C.ar    1  UNL1        0.0051
      4 C          64.5774   91.9167   11.5430 C.ar    1  UNL1        0.0148
      5 C          65.4806   91.4438   12.6432 C.ar    1  UNL1        0.0516
      6 C          66.9617   91.6578   12.5417 C.ar    1  UNL1        0.0148
      7 C          67.5396   92.3448   11.3401 C.ar    1  UNL1        0.0051
      8 F          67.7923   94.1917    7.8365 F       1  UNL1       -0.1659
      9 C          67.2143   93.5047    9.0381 C.3     1  UNL1        0.4186
     10 F          66.2883   94.6645    9.2558 F       1  UNL1       -0.1659
     11 F          68.1404   92.3449    8.8205 F       1  UNL1       -0.1659
     12 C          64.7441   91.5073   15.1339 C.ar    1  UNL1        0.0904
     13 C          63.4414   91.4566   15.8759 C.ar    1  UNL1        0.1170
     14 N          63.2829   92.2072   17.1650 N.ar    1  UNL1       -0.2211
     15 C          64.4269   93.0084   17.7119 C.ar    1  UNL1        0.1990
     16 N          65.7295   93.0591   16.9699 N.ar    1  UNL1       -0.2211
     17 C          65.8881   92.3086   15.6809 C.ar    1  UNL1        0.1170
     18 C          64.4833   89.3192   13.7576 C.3     1  UNL1        0.0807
     19 C          63.6224   88.8569   12.6196 C.3     1  UNL1        0.0415
     20 C          63.2030   87.4194   12.5323 C.3     1  UNL1        0.0925
     21 N          63.6446   86.4441   13.5830 N.pl3   1  UNL1       -0.3062
     22 C          64.5055   86.9064   14.7210 C.3     1  UNL1        0.0925
     23 C          64.9249   88.3440   14.8083 C.3     1  UNL1        0.0415
     24 C          63.2253   85.0066   13.4956 C.ar    1  UNL1        0.0673
     25 C          63.1246   84.3346   12.1584 C.ar    1  UNL1        0.0176
     26 C          62.7052   82.8971   12.0711 C.ar    1  UNL1        0.0244
     27 C          62.3865   82.1316   13.3211 C.ar    1  UNL1        0.1527
     28 N          62.4872   82.8035   14.6583 N.ar    1  UNL1       -0.2386
     29 C          62.9066   84.2410   14.7456 C.ar    1  UNL1        0.1132
     30 C          61.9672   80.6940   13.2337 C.3     1  UNL1        0.4348
     31 F          61.5478   79.2565   13.1464 F       1  UNL1       -0.1644
     32 F          63.0615   80.4350   12.2412 F       1  UNL1       -0.1644
     33 F          60.8728   80.9530   14.2263 F       1  UNL1       -0.1644
@<TRIPOS>BOND
     1     8     9    1
     2     9    10    1
     3     9    11    1
     4     9     2    1
     5     2     3   ar
     6     3     4   ar
     7     4     5   ar
     8     5     1    1
     9     1    12    1
    10    12    13   ar
    11    13    14   ar
    12    14    15   ar
    13    15    16   ar
    14    16    17   ar
    15     1    18    1
    16    18    19    1
    17    19    20    1
    18    20    21    1
    19    21    24    1
    20    24    25   ar
    21    25    26   ar
    22    26    27   ar
    23    27    30    1
    24    30    31    1
    25    30    32    1
    26    30    33    1
    27    27    28   ar
    28    28    29   ar
    29    21    22    1
    30    22    23    1
    31     5     6   ar
    32     6     7   ar
    33     7     2   ar
    34    17    12   ar
    35    23    18    1
    36    29    24   ar
@<TRIPOS>MOLECULE
*****
 33 36 0 0 0
SMALL
GASTEIGER

@<TRIPOS>ATOM
      1 N          62.1635   86.5257   11.6826 N.pl3   1  UNL1       -0.2860
      2 C          62.5716   82.3011   13.1782 C.ar    1  UNL1        0.0715
      3 C          62.7544   82.6015   11.7200 C.ar    1  UNL1        0.0051
      4 C          62.6184   84.0097   11.2215 C.ar    1  UNL1        0.0148
      5 C          62.2995   85.1175   12.1811 C.ar    1  UNL1        0.0516
      6 C          62.1167   84.8171   13.6393 C.ar    1  UNL1        0.0148
      7 C          62.2527   83.4090   14.1378 C.ar    1  UNL1        0.0051
      8 F          62.8436   79.4848   14.1752 F       1  UNL1       -0.1659
      9 C          62.7076   80.8929   13.6767 C.3     1  UNL1        0.4186
     10 F          61.2316   80.8434   13.9395 F       1  UNL1       -0.1659
     11 F          64.1836   80.9425   13.4139 F       1  UNL1       -0.1659
     12 C          61.1820   86.8444   10.5941 C.ar    1  UNL1        0.0904
     13 C          60.0937   87.8481   10.8358 C.ar    1  UNL1        0.1170
     14 N          59.1121   88.1668    9.7472 N.ar    1  UNL1       -0.2211
     15 C          59.2188   87.4819    8.4170 C.ar    1  UNL1        0.1990
     16 N          60.3071   86.4783    8.1753 N.ar    1  UNL1       -0.2211
     17 C          61.2887   86.1596    9.2638 C.ar    1  UNL1        0.1170
     18 C          63.0090   87.6151   12.2726 C.3     1  UNL1        0.0807
     19 C          63.0813   88.9550   11.6020 C.3     1  UNL1        0.0415
     20 C          63.9268   90.0444   12.1920 C.3     1  UNL1        0.0925
     21 N          64.7001   89.7941   13.4527 N.pl3   1  UNL1       -0.3062
     22 C          64.6279   88.4544   14.1233 C.3     1  UNL1        0.0925
     23 C          63.7824   87.3648   13.5333 C.3     1  UNL1        0.0415
     24 C          65.5457   90.8836   14.0427 C.ar    1  UNL1        0.0673
     25 C          65.2521   91.3977   15.4209 C.ar    1  UNL1        0.0176
     26 C          66.0976   92.4872   16.0108 C.ar    1  UNL1        0.0244
     27 C          67.2367   93.0626   15.2225 C.ar    1  UNL1        0.1527
     28 N          67.5303   92.5485   13.8443 N.ar    1  UNL1       -0.2386
     29 C          66.6848   91.4590   13.2544 C.ar    1  UNL1        0.1132
     30 C          68.0823   94.1521   15.8125 C.3     1  UNL1        0.4348
     31 F          68.9278   95.2416   16.4025 F       1  UNL1       -0.1644
     32 F          68.7322   93.1541   16.7243 F       1  UNL1       -0.1644
     33 F          67.4324   95.1502   14.9007 F       1  UNL1       -0.1644
@<TRIPOS>BOND
     1     8     9    1
     2     9    10    1
     3     9    11    1
     4     9     2    1
     5     2     3   ar
     6     3     4   ar
     7     4     5   ar
     8     5     1    1
     9     1    12    1
    10    12    13   ar
    11    13    14   ar
    12    14    15   ar
    13    15    16   ar
    14    16    17   ar
    15     1    18    1
    16    18    19    1
    17    19    20    1
    18    20    21    1
    19    21    24    1
    20    24    25   ar
    21    25    26   ar
    22    26    27   ar
    23    27    30    1
    24    30    31    1
    25    30    32    1
    26    30    33    1
    27    27    28   ar
    28    28    29   ar
    29    21    22    1
    30    22    23    1
    31     5     6   ar
    32     6     7   ar
    33     7     2   ar
    34    17    12   ar
    35    23    18    1
    36    29    24   ar
@<TRIPOS>MOLECULE
*****
 33 36 0 0 0
SMALL
GASTEIGER

@<TRIPOS>ATOM
      1 N          62.1512   86.5780   11.7048 N.pl3   1  UNL1       -0.2860
      2 C          62.5561   82.3469   13.1825 C.ar    1  UNL1        0.0715
      3 C          62.6998   82.6475   11.7201 C.ar    1  UNL1        0.0051
      4 C          62.5648   84.0579   11.2275 C.ar    1  UNL1        0.0148
      5 C          62.2862   85.1676   12.1974 C.ar    1  UNL1        0.0516
      6 C          62.1425   84.8670   13.6599 C.ar    1  UNL1        0.0148
      7 C          62.2775   83.4566   14.1525 C.ar    1  UNL1        0.0051
      8 F          62.8261   79.5261   14.1677 F       1  UNL1       -0.1659
      9 C          62.6911   80.9365   13.6751 C.3     1  UNL1        0.4186
     10 F          61.2241   80.9049   13.9866 F       1  UNL1       -0.1659
     11 F          64.1580   80.9681   13.3636 F       1  UNL1       -0.1659
     12 C          61.1611   86.9042   10.6262 C.ar    1  UNL1        0.0904
     13 C          61.2821   86.2596    9.2772 C.ar    1  UNL1        0.1170
     14 N          60.2920   86.5859    8.1986 N.ar    1  UNL1       -0.2211
     15 C          59.1810   87.5567    8.4691 C.ar    1  UNL1        0.1990
     16 N          59.0600   88.2013    9.8181 N.ar    1  UNL1       -0.2211
     17 C          60.0501   87.8750   10.8967 C.ar    1  UNL1        0.1170
     18 C          63.0063   87.6621   12.2907 C.3     1  UNL1        0.0807
     19 C          63.8007   87.4003   13.5360 C.3     1  UNL1        0.0415
     20 C          64.6557   88.4844   14.1219 C.3     1  UNL1        0.0925
     21 N          64.7165   89.8305   13.4628 N.pl3   1  UNL1       -0.3062
     22 C          63.9221   90.0923   12.2176 C.3     1  UNL1        0.0925
     23 C          63.0670   89.0082   11.6316 C.3     1  UNL1        0.0415
     24 C          65.5716   90.9146   14.0488 C.ar    1  UNL1        0.0673
     25 C          65.3051   91.4112   15.4389 C.ar    1  UNL1        0.0176
     26 C          66.1602   92.4953   16.0249 C.ar    1  UNL1        0.0244
     27 C          67.2818   93.0829   15.2207 C.ar    1  UNL1        0.1527
     28 N          67.5484   92.5864   13.8306 N.ar    1  UNL1       -0.2386
     29 C          66.6933   91.5023   13.2447 C.ar    1  UNL1        0.1132
     30 C          68.1370   94.1671   15.8068 C.3     1  UNL1        0.4348
     31 F          68.9921   95.2512   16.3928 F       1  UNL1       -0.1644
     32 F          67.4667   95.1748   14.9207 F       1  UNL1       -0.1644
     33 F          68.8073   93.1594   16.6928 F       1  UNL1       -0.1644
@<TRIPOS>BOND
     1     8     9    1
     2     9    10    1
     3     9    11    1
     4     9     2    1
     5     2     3   ar
     6     3     4   ar
     7     4     5   ar
     8     5     1    1
     9     1    12    1
    10    12    13   ar
    11    13    14   ar
    12    14    15   ar
    13    15    16   ar
    14    16    17   ar
    15     1    18    1
    16    18    19    1
    17    19    20    1
    18    20    21    1
    19    21    24    1
    20    24    25   ar
    21    25    26   ar
    22    26    27   ar
    23    27    30    1
    24    30    31    1
    25    30    32    1
    26    30    33    1
    27    27    28   ar
    28    28    29   ar
    29    21    22    1
    30    22    23    1
    31     5     6   ar
    32     6     7   ar
    33     7     2   ar
    34    17    12   ar
    35    23    18    1
    36    29    24   ar
@<TRIPOS>MOLECULE
*****
 33 36 0 0 0
SMALL
GASTEIGER

@<TRIPOS>ATOM
      1 N          62.5151   84.2925   12.2905 N.pl3   1  UNL1       -0.2860
      2 C          62.8916   79.9477   11.1807 C.ar    1  UNL1        0.0715
      3 C          63.3198   81.0092   10.2113 C.ar    1  UNL1        0.0051
      4 C          63.1943   82.4575   10.5812 C.ar    1  UNL1        0.0148
      5 C          62.6406   82.8442   11.9205 C.ar    1  UNL1        0.0516
      6 C          62.2124   81.7827   12.8899 C.ar    1  UNL1        0.0148
      7 C          62.3379   80.3345   12.5200 C.ar    1  UNL1        0.0051
      8 F          63.1426   77.0512   10.4409 F       1  UNL1       -0.1659
      9 C          63.0171   78.4995   10.8108 C.3     1  UNL1        0.4186
     10 F          63.2927   78.8868    9.3881 F       1  UNL1       -0.1659
     11 F          62.7415   78.1122   12.2335 F       1  UNL1       -0.1659
     12 C          62.9627   84.7627   13.6427 C.ar    1  UNL1        0.0904
     13 C          62.0852   84.5472   14.8400 C.ar    1  UNL1        0.1170
     14 N          62.5328   85.0175   16.1923 N.ar    1  UNL1       -0.2211
     15 C          63.8579   85.7031   16.3472 C.ar    1  UNL1        0.1990
     16 N          64.7354   85.9185   15.1499 N.ar    1  UNL1       -0.2211
     17 C          64.2878   85.4483   13.7977 C.ar    1  UNL1        0.1170
     18 C          61.9421   85.2705   11.3082 C.3     1  UNL1        0.0807
     19 C          61.1881   86.4712   11.7982 C.3     1  UNL1        0.0415
     20 C          60.6151   87.4492   10.8159 C.3     1  UNL1        0.0925
     21 N          60.7959   87.2267    9.3435 N.pl3   1  UNL1       -0.3062
     22 C          61.5498   86.0261    8.8535 C.3     1  UNL1        0.0925
     23 C          62.1229   85.0480    9.8358 C.3     1  UNL1        0.0415
     24 C          60.2228   88.2048    8.3612 C.ar    1  UNL1        0.0673
     25 C          59.4338   87.7113    7.1849 C.ar    1  UNL1        0.0176
     26 C          58.8607   88.6894    6.2026 C.ar    1  UNL1        0.0244
     27 C          59.0767   90.1611    6.3967 C.ar    1  UNL1        0.1527
     28 N          59.8657   90.6546    7.5731 N.ar    1  UNL1       -0.2386
     29 C          60.4388   89.6765    8.5553 C.ar    1  UNL1        0.1132
     30 C          58.5036   91.1392    5.4144 C.3     1  UNL1        0.4348
     31 F          57.9305   92.1173    4.4322 F       1  UNL1       -0.1644
     32 F          59.8734   91.7016    5.1751 F       1  UNL1       -0.1644
     33 F          57.1338   90.5768    5.6537 F       1  UNL1       -0.1644
@<TRIPOS>BOND
     1     8     9    1
     2     9    10    1
     3     9    11    1
     4     9     2    1
     5     2     3   ar
     6     3     4   ar
     7     4     5   ar
     8     5     1    1
     9     1    12    1
    10    12    13   ar
    11    13    14   ar
    12    14    15   ar
    13    15    16   ar
    14    16    17   ar
    15     1    18    1
    16    18    19    1
    17    19    20    1
    18    20    21    1
    19    21    24    1
    20    24    25   ar
    21    25    26   ar
    22    26    27   ar
    23    27    30    1
    24    30    31    1
    25    30    32    1
    26    30    33    1
    27    27    28   ar
    28    28    29   ar
    29    21    22    1
    30    22    23    1
    31     5     6   ar
    32     6     7   ar
    33     7     2   ar
    34    17    12   ar
    35    23    18    1
    36    29    24   ar
@<TRIPOS>MOLECULE
*****
 33 36 0 0 0
SMALL
GASTEIGER

@<TRIPOS>ATOM
      1 N          62.4642   88.9515   12.3830 N.pl3   1  UNL1       -0.2860
      2 C          66.0050   91.1839   14.0350 C.ar    1  UNL1        0.0715
      3 C          65.4384   90.0153   14.7855 C.ar    1  UNL1        0.0051
      4 C          64.2582   89.2712   14.2349 C.ar    1  UNL1        0.0148
      5 C          63.6445   89.6956   12.9337 C.ar    1  UNL1        0.0516
      6 C          64.2110   90.8642   12.1831 C.ar    1  UNL1        0.0148
      7 C          65.3913   91.6083   12.7338 C.ar    1  UNL1        0.0051
      8 F          68.3655   92.6722   15.1363 F       1  UNL1       -0.1659
      9 C          67.1853   91.9280   14.5856 C.3     1  UNL1        0.4186
     10 F          67.9772   91.5783   13.3607 F       1  UNL1       -0.1659
     11 F          66.3933   92.2777   15.8106 F       1  UNL1       -0.1659
     12 C          61.1936   89.6853   12.0717 C.ar    1  UNL1        0.0904
     13 C          61.1791   90.7414   11.0065 C.ar    1  UNL1        0.1170
     14 N          59.9084   91.4753   10.6952 N.ar    1  UNL1       -0.2211
     15 C          58.6523   91.1531   11.4490 C.ar    1  UNL1        0.1990
     16 N          58.6668   90.0971   12.5142 N.ar    1  UNL1       -0.2211
     17 C          59.9374   89.3632   12.8255 C.ar    1  UNL1        0.1170
     18 C          62.5545   87.4735   12.1437 C.3     1  UNL1        0.0807
     19 C          63.2970   86.6009   13.1120 C.3     1  UNL1        0.0415
     20 C          63.3873   85.1229   12.8727 C.3     1  UNL1        0.0925
     21 N          62.7352   84.5174   11.6652 N.pl3   1  UNL1       -0.3062
     22 C          61.9927   85.3899   10.6970 C.3     1  UNL1        0.0925
     23 C          61.9024   86.8680   10.9362 C.3     1  UNL1        0.0415
     24 C          62.8255   83.0393   11.4259 C.ar    1  UNL1        0.0673
     25 C          62.3601   82.0791   12.4801 C.ar    1  UNL1        0.0176
     26 C          62.4505   80.6011   12.2408 C.ar    1  UNL1        0.0244
     27 C          63.0062   80.0833   10.9473 C.ar    1  UNL1        0.1527
     28 N          63.4717   81.0435    9.8932 N.ar    1  UNL1       -0.2386
     29 C          63.3813   82.5215   10.1325 C.ar    1  UNL1        0.1132
     30 C          63.0966   78.6052   10.7080 C.3     1  UNL1        0.4348
     31 F          63.1870   77.1272   10.4687 F       1  UNL1       -0.1644
     32 F          62.7449   78.3512   12.1439 F       1  UNL1       -0.1644
     33 F          63.4483   78.8592    9.2722 F       1  UNL1       -0.1644
@<TRIPOS>BOND
     1     8     9    1
     2     9    10    1
     3     9    11    1
     4     9     2    1
     5     2     3   ar
     6     3     4   ar
     7     4     5   ar
     8     5     1    1
     9     1    12    1
    10    12    13   ar
    11    13    14   ar
    12    14    15   ar
    13    15    16   ar
    14    16    17   ar
    15     1    18    1
    16    18    19    1
    17    19    20    1
    18    20    21    1
    19    21    24    1
    20    24    25   ar
    21    25    26   ar
    22    26    27   ar
    23    27    30    1
    24    30    31    1
    25    30    32    1
    26    30    33    1
    27    27    28   ar
    28    28    29   ar
    29    21    22    1
    30    22    23    1
    31     5     6   ar
    32     6     7   ar
    33     7     2   ar
    34    17    12   ar
    35    23    18    1
    36    29    24   ar
