@<TRIPOS>MOLECULE
*****
 17 19 0 0 0
SMALL
GASTEIGER

@<TRIPOS>ATOM
      1 C          63.0334   84.2673   12.9972 C.2     1  UNL1        0.1901
      2 N          62.0737   85.3188   12.5245 N.2     1  UNL1       -0.2200
      3 C          62.1894   85.4147   11.0321 C.2     1  UNL1        0.0973
      4 C          61.4890   86.2774   10.0245 C.2     1  UNL1        0.0201
      5 C          61.8198   86.1479    8.5672 C.2     1  UNL1       -0.0026
      6 C          62.8510   85.1557    8.1175 C.2     1  UNL1       -0.0197
      7 C          63.5513   84.2930    9.1251 C.3     1  UNL1        0.0734
      8 C          63.2206   84.4226   10.5824 C.2     1  UNL1        0.0831
      9 N          63.7421   83.7134   11.7969 N.2     1  UNL1       -0.2237
     10 S          63.2468   83.8440   14.4204 S.3     1  UNL1       -0.0692
     11 C          64.1955   84.6079   15.2958 C.3     1  UNL1        0.1107
     12 C          63.1792   88.7928   16.6008 C.ar    1  UNL1        0.0207
     13 C          62.8077   87.6260   17.4672 C.ar    1  UNL1        0.0028
     14 C          63.1465   86.2310   17.0322 C.ar    1  UNL1        0.0156
     15 C          63.8567   86.0028   15.7308 C.ar    1  UNL1        0.0703
     16 N          64.2281   87.1696   14.8645 N.ar    1  UNL1       -0.2473
     17 C          63.8894   88.5646   15.2995 C.ar    1  UNL1        0.0985
@<TRIPOS>BOND
     1    12    13   ar
     2    13    14   ar
     3    14    15   ar
     4    15    11    1
     5    11    10    1
     6    10     1    1
     7     1     2    2
     8     2     3    1
     9     3     4    2
    10     4     5    1
    11     5     6    2
    12     6     7    1
    13     7     8    1
    14     8     9    2
    15    15    16   ar
    16    16    17   ar
    17    17    12   ar
    18     9     1    1
    19     8     3    1
@<TRIPOS>MOLECULE
*****
 17 19 0 0 0
SMALL
GASTEIGER

@<TRIPOS>ATOM
      1 C          61.3917   86.5030   10.5435 C.2     1  UNL1        0.1901
      2 N          62.1513   85.6631    9.5600 N.2     1  UNL1       -0.2200
      3 C          62.9227   84.6320   10.3293 C.2     1  UNL1        0.0973
      4 C          63.8462   83.5347    9.8898 C.2     1  UNL1        0.0201
      5 C          64.4867   82.6402   10.9094 C.2     1  UNL1       -0.0026
      6 C          64.2037   82.8429   12.3684 C.2     1  UNL1       -0.0197
      7 C          63.2803   83.9402   12.8079 C.3     1  UNL1        0.0734
      8 C          62.6398   84.8347   11.7884 C.2     1  UNL1        0.0831
      9 N          61.6935   85.9911   11.9208 N.2     1  UNL1       -0.2237
     10 S          60.4887   87.6530   10.2087 S.3     1  UNL1       -0.0692
     11 C          60.4017   88.8319   11.1320 C.3     1  UNL1        0.1107
     12 C          64.0686   91.2964   11.9863 C.ar    1  UNL1        0.0207
     13 C          63.4658   91.2999   10.6126 C.ar    1  UNL1        0.0028
     14 C          62.2435   90.4784   10.3279 C.ar    1  UNL1        0.0156
     15 C          61.6240   89.6534   11.4168 C.ar    1  UNL1        0.0703
     16 N          62.2268   89.6499   12.7903 N.ar    1  UNL1       -0.2473
     17 C          63.4491   90.4714   13.0750 C.ar    1  UNL1        0.0985
@<TRIPOS>BOND
     1    12    13   ar
     2    13    14   ar
     3    14    15   ar
     4    15    11    1
     5    11    10    1
     6    10     1    1
     7     1     2    2
     8     2     3    1
     9     3     4    2
    10     4     5    1
    11     5     6    2
    12     6     7    1
    13     7     8    1
    14     8     9    2
    15    15    16   ar
    16    16    17   ar
    17    17    12   ar
    18     9     1    1
    19     8     3    1
@<TRIPOS>MOLECULE
*****
 17 19 0 0 0
SMALL
GASTEIGER

@<TRIPOS>ATOM
      1 C          61.8442   89.9486   11.4098 C.2     1  UNL1        0.1901
      2 N          62.7764   91.0335   10.9581 N.2     1  UNL1       -0.2200
      3 C          63.8405   91.1951   12.0029 C.2     1  UNL1        0.0973
      4 C          65.0240   92.1119   12.0967 C.2     1  UNL1        0.0201
      5 C          65.9329   92.0437   13.2880 C.2     1  UNL1       -0.0026
      6 C          65.6583   91.0587   14.3854 C.2     1  UNL1       -0.0197
      7 C          64.4749   90.1419   14.2916 C.3     1  UNL1        0.0734
      8 C          63.5660   90.2101   13.1003 C.2     1  UNL1        0.0831
      9 N          62.3322   89.4397   12.7338 N.2     1  UNL1       -0.2237
     10 S          60.6361   89.4586   10.6678 S.3     1  UNL1       -0.0692
     11 C          60.1926   88.0333   10.8149 C.3     1  UNL1        0.1107
     12 C          63.0732   84.6817    9.9671 C.ar    1  UNL1        0.0207
     13 C          62.6565   85.6093    8.8645 C.ar    1  UNL1        0.0028
     14 C          61.6963   86.7266    9.1471 C.ar    1  UNL1        0.0156
     15 C          61.1528   86.9161   10.5323 C.ar    1  UNL1        0.0703
     16 N          61.5696   85.9884   11.6349 N.ar    1  UNL1       -0.2473
     17 C          62.5298   84.8712   11.3523 C.ar    1  UNL1        0.0985
@<TRIPOS>BOND
     1    12    13   ar
     2    13    14   ar
     3    14    15   ar
     4    15    11    1
     5    11    10    1
     6    10     1    1
     7     1     2    2
     8     2     3    1
     9     3     4    2
    10     4     5    1
    11     5     6    2
    12     6     7    1
    13     7     8    1
    14     8     9    2
    15    15    16   ar
    16    16    17   ar
    17    17    12   ar
    18     9     1    1
    19     8     3    1
@<TRIPOS>MOLECULE
*****
 17 19 0 0 0
SMALL
GASTEIGER

@<TRIPOS>ATOM
      1 C          62.5744   89.4168   12.0855 C.2     1  UNL1        0.1901
      2 N          62.6696   87.9557   11.7598 N.2     1  UNL1       -0.2200
      3 C          61.8062   87.6905   10.5623 C.2     1  UNL1        0.0973
      4 C          61.5113   86.4354    9.7957 C.2     1  UNL1        0.0201
      5 C          60.5876   86.4775    8.6146 C.2     1  UNL1       -0.0026
      6 C          59.9588   87.7747    8.2002 C.2     1  UNL1       -0.0197
      7 C          60.2536   89.0298    8.9668 C.3     1  UNL1        0.0734
      8 C          61.1773   88.9877   10.1478 C.2     1  UNL1        0.0831
      9 N          61.6521   90.0546   11.0892 N.2     1  UNL1       -0.2237
     10 S          63.2780   90.1172   13.2100 S.3     1  UNL1       -0.0692
     11 C          64.3571   89.4104   13.9754 C.3     1  UNL1        0.1107
     12 C          63.2786   86.2178   16.9577 C.ar    1  UNL1        0.0207
     13 C          64.0561   85.8612   15.7254 C.ar    1  UNL1        0.0028
     14 C          64.4156   86.9254   14.7313 C.ar    1  UNL1        0.0156
     15 C          63.9976   88.3462   14.9695 C.ar    1  UNL1        0.0703
     16 N          63.2202   88.7027   16.2017 N.ar    1  UNL1       -0.2473
     17 C          62.8606   87.6385   17.1958 C.ar    1  UNL1        0.0985
@<TRIPOS>BOND
     1    12    13   ar
     2    13    14   ar
     3    14    15   ar
     4    15    11    1
     5    11    10    1
     6    10     1    1
     7     1     2    2
     8     2     3    1
     9     3     4    2
    10     4     5    1
    11     5     6    2
    12     6     7    1
    13     7     8    1
    14     8     9    2
    15    15    16   ar
    16    16    17   ar
    17    17    12   ar
    18     9     1    1
    19     8     3    1
@<TRIPOS>MOLECULE
*****
 17 19 0 0 0
SMALL
GASTEIGER

@<TRIPOS>ATOM
      1 C          62.9299   89.6497   12.3360 C.2     1  UNL1        0.1901
      2 N          62.0603   90.2109   11.2503 N.2     1  UNL1       -0.2200
      3 C          61.5359   89.0646   10.4373 C.2     1  UNL1        0.0973
      4 C          60.6321   89.0129    9.2413 C.2     1  UNL1        0.0201
      5 C          60.2738   87.6915    8.6286 C.2     1  UNL1       -0.0026
      6 C          60.8193   86.4218    9.2119 C.2     1  UNL1       -0.0197
      7 C          61.7231   86.4735   10.4079 C.3     1  UNL1        0.0734
      8 C          62.0814   87.7949   11.0206 C.2     1  UNL1        0.0831
      9 N          62.9429   88.1565   12.1940 N.2     1  UNL1       -0.2237
     10 S          63.6586   90.4425   13.3803 S.3     1  UNL1       -0.0692
     11 C          64.6688   91.4728   12.9706 C.3     1  UNL1        0.1107
     12 C          67.9024   92.7195   15.8410 C.ar    1  UNL1        0.0207
     13 C          68.2572   92.3186   14.4397 C.ar    1  UNL1        0.0028
     14 C          67.1793   91.9030   13.4829 C.ar    1  UNL1        0.0156
     15 C          65.7467   91.8883   13.9274 C.ar    1  UNL1        0.0703
     16 N          65.3920   92.2892   15.3286 N.ar    1  UNL1       -0.2473
     17 C          66.4699   92.7048   16.2854 C.ar    1  UNL1        0.0985
@<TRIPOS>BOND
     1    12    13   ar
     2    13    14   ar
     3    14    15   ar
     4    15    11    1
     5    11    10    1
     6    10     1    1
     7     1     2    2
     8     2     3    1
     9     3     4    2
    10     4     5    1
    11     5     6    2
    12     6     7    1
    13     7     8    1
    14     8     9    2
    15    15    16   ar
    16    16    17   ar
    17    17    12   ar
    18     9     1    1
    19     8     3    1
@<TRIPOS>MOLECULE
*****
 17 19 0 0 0
SMALL
GASTEIGER

@<TRIPOS>ATOM
      1 C          62.3748   86.1028   11.6912 C.2     1  UNL1        0.1901
      2 N          61.6287   85.4133   10.5876 N.2     1  UNL1       -0.2200
      3 C          60.9978   86.4666    9.7259 C.2     1  UNL1        0.0973
      4 C          60.1450   86.3782    8.4951 C.2     1  UNL1        0.0201
      5 C          59.6485   87.6304    7.8352 C.2     1  UNL1       -0.0026
      6 C          60.0048   88.9710    8.4062 C.2     1  UNL1       -0.0197
      7 C          60.8576   89.0593    9.6369 C.3     1  UNL1        0.0734
      8 C          61.3541   87.8072   10.2968 C.2     1  UNL1        0.0831
      9 N          62.2051   87.5823   11.5114 N.2     1  UNL1       -0.2237
     10 S          63.1539   85.4309   12.7828 S.3     1  UNL1       -0.0692
     11 C          63.8735   84.1439   12.5076 C.3     1  UNL1        0.1107
     12 C          61.9053   80.2143   13.4740 C.ar    1  UNL1        0.0207
     13 C          61.7000   81.3972   14.3733 C.ar    1  UNL1        0.0028
     14 C          62.3560   82.7070   14.0512 C.ar    1  UNL1        0.0156
     15 C          63.2175   82.8340   12.8297 C.ar    1  UNL1        0.0703
     16 N          63.4228   81.6512   11.9305 N.ar    1  UNL1       -0.2473
     17 C          62.7667   80.3413   12.2526 C.ar    1  UNL1        0.0985
@<TRIPOS>BOND
     1    12    13   ar
     2    13    14   ar
     3    14    15   ar
     4    15    11    1
     5    11    10    1
     6    10     1    1
     7     1     2    2
     8     2     3    1
     9     3     4    2
    10     4     5    1
    11     5     6    2
    12     6     7    1
    13     7     8    1
    14     8     9    2
    15    15    16   ar
    16    16    17   ar
    17    17    12   ar
    18     9     1    1
    19     8     3    1
@<TRIPOS>MOLECULE
*****
 17 19 0 0 0
SMALL
GASTEIGER

@<TRIPOS>ATOM
      1 C          66.8750   92.8191   13.4699 C.2     1  UNL1        0.1901
      2 N          66.4307   94.0053   12.6665 N.2     1  UNL1       -0.2200
      3 C          66.9565   93.8434   11.2711 C.2     1  UNL1        0.0973
      4 C          66.8342   94.7011   10.0466 C.2     1  UNL1        0.0201
      5 C          67.4812   94.2724    8.7630 C.2     1  UNL1       -0.0026
      6 C          68.2505   92.9861    8.7040 C.2     1  UNL1       -0.0197
      7 C          68.3728   92.1284    9.9284 C.3     1  UNL1        0.0734
      8 C          67.7258   92.5571   11.2120 C.2     1  UNL1        0.0831
      9 N          67.6754   91.9240   12.5709 N.2     1  UNL1       -0.2237
     10 S          66.5720   92.5714   14.9180 S.3     1  UNL1       -0.0692
     11 C          65.2964   91.8870   15.3109 C.3     1  UNL1        0.1107
     12 C          63.2181   89.1573   12.3991 C.ar    1  UNL1        0.0207
     13 C          63.9340   88.5829   13.5856 C.ar    1  UNL1        0.0028
     14 C          64.6268   89.4928   14.5562 C.ar    1  UNL1        0.0156
     15 C          64.6037   90.9771   14.3403 C.ar    1  UNL1        0.0703
     16 N          63.8878   91.5514   13.1539 N.ar    1  UNL1       -0.2473
     17 C          63.1950   90.6414   12.1832 C.ar    1  UNL1        0.0985
@<TRIPOS>BOND
     1    12    13   ar
     2    13    14   ar
     3    14    15   ar
     4    15    11    1
     5    11    10    1
     6    10     1    1
     7     1     2    2
     8     2     3    1
     9     3     4    2
    10     4     5    1
    11     5     6    2
    12     6     7    1
    13     7     8    1
    14     8     9    2
    15    15    16   ar
    16    16    17   ar
    17    17    12   ar
    18     9     1    1
    19     8     3    1
@<TRIPOS>MOLECULE
*****
 17 19 0 0 0
SMALL
GASTEIGER

@<TRIPOS>ATOM
      1 C          66.3431   92.8779   12.3589 C.2     1  UNL1        0.1901
      2 N          66.0499   94.3432   12.4898 N.2     1  UNL1       -0.2200
      3 C          66.5077   95.0216   11.2328 C.2     1  UNL1        0.0973
      4 C          66.4744   96.4567   10.7975 C.2     1  UNL1        0.0201
      5 C          67.0171   96.8457    9.4544 C.2     1  UNL1       -0.0026
      6 C          67.5932   95.7998    8.5466 C.2     1  UNL1       -0.0197
      7 C          67.6266   94.3648    8.9819 C.3     1  UNL1        0.0734
      8 C          67.0838   93.9757   10.3250 C.2     1  UNL1        0.0831
      9 N          66.9820   92.6508   11.0210 N.2     1  UNL1       -0.2237
     10 S          66.0489   91.8248   13.3857 S.3     1  UNL1       -0.0692
     11 C          64.6328   91.4020   13.6421 C.3     1  UNL1        0.1107
     12 C          62.4073   89.0011   10.5546 C.ar    1  UNL1        0.0207
     13 C          62.7722   90.4289   10.2744 C.ar    1  UNL1        0.0028
     14 C          63.5140   91.2292   11.3036 C.ar    1  UNL1        0.0156
     15 C          63.8909   90.6017   12.6129 C.ar    1  UNL1        0.0703
     16 N          63.5260   89.1741   12.8931 N.ar    1  UNL1       -0.2473
     17 C          62.7841   88.3738   11.8639 C.ar    1  UNL1        0.0985
@<TRIPOS>BOND
     1    12    13   ar
     2    13    14   ar
     3    14    15   ar
     4    15    11    1
     5    11    10    1
     6    10     1    1
     7     1     2    2
     8     2     3    1
     9     3     4    2
    10     4     5    1
    11     5     6    2
    12     6     7    1
    13     7     8    1
    14     8     9    2
    15    15    16   ar
    16    16    17   ar
    17    17    12   ar
    18     9     1    1
    19     8     3    1
@<TRIPOS>MOLECULE
*****
 17 19 0 0 0
SMALL
GASTEIGER

@<TRIPOS>ATOM
      1 C          63.5612   90.8333   11.4788 C.2     1  UNL1        0.1901
      2 N          64.4521   92.0063   11.1953 N.2     1  UNL1       -0.2200
      3 C          65.2030   92.3324   12.4523 C.2     1  UNL1        0.0973
      4 C          66.2202   93.3885   12.7683 C.2     1  UNL1        0.0201
      5 C          66.8106   93.4731   14.1446 C.2     1  UNL1       -0.0026
      6 C          66.3837   92.5017   15.2048 C.2     1  UNL1       -0.0197
      7 C          65.3665   91.4456   14.8888 C.3     1  UNL1        0.0734
      8 C          64.7761   91.3610   13.5125 C.2     1  UNL1        0.0831
      9 N          63.7614   90.4345   12.9108 N.2     1  UNL1       -0.2237
     10 S          62.6330   90.1747   10.5017 S.3     1  UNL1       -0.0692
     11 C          62.1840   88.7617   10.7292 C.3     1  UNL1        0.1107
     12 C          59.7741   86.6321    7.5816 C.ar    1  UNL1        0.0207
     13 C          60.9830   85.9715    8.1752 C.ar    1  UNL1        0.0028
     14 C          61.7863   86.6814    9.2244 C.ar    1  UNL1        0.0156
     15 C          61.3807   88.0518    9.6800 C.ar    1  UNL1        0.0703
     16 N          60.1718   88.7123    9.0864 N.ar    1  UNL1       -0.2473
     17 C          59.3685   88.0024    8.0372 C.ar    1  UNL1        0.0985
@<TRIPOS>BOND
     1    12    13   ar
     2    13    14   ar
     3    14    15   ar
     4    15    11    1
     5    11    10    1
     6    10     1    1
     7     1     2    2
     8     2     3    1
     9     3     4    2
    10     4     5    1
    11     5     6    2
    12     6     7    1
    13     7     8    1
    14     8     9    2
    15    15    16   ar
    16    16    17   ar
    17    17    12   ar
    18     9     1    1
    19     8     3    1
