@<TRIPOS>MOLECULE
*****
 31 35 0 0 0
SMALL
GASTEIGER

@<TRIPOS>ATOM
      1 O          63.0810   88.9992   13.9449 O.2     1  UNL1       -0.2739
      2 C          62.8005   89.3645   12.5174 C.2     1  UNL1        0.2419
      3 N          63.5358   90.5040   11.8764 N.am    1  UNL1       -0.2581
      4 C          63.3625   90.9828   10.4655 C.3     1  UNL1        0.1029
      5 C          64.2931   92.1394   10.2508 C.3     1  UNL1        0.0495
      6 C          65.0416   92.3755   11.5292 C.ar    1  UNL1       -0.0067
      7 C          66.0888   93.3803   11.9082 C.ar    1  UNL1       -0.0026
      8 C          66.6680   93.3744   13.2919 C.ar    1  UNL1       -0.0002
      9 C          66.2000   92.3637   14.2965 C.ar    1  UNL1        0.0013
     10 C          65.1527   91.3589   13.9175 C.ar    1  UNL1        0.0146
     11 C          64.5735   91.3648   12.5338 C.ar    1  UNL1        0.0499
     12 C          66.5568   94.3911   10.9035 C.ar    1  UNL1        0.0028
     13 C          66.2469   95.8452   11.1023 C.ar    1  UNL1        0.0207
     14 C          66.7149   96.8560   10.0976 C.ar    1  UNL1        0.0989
     15 N          67.4929   96.4126    8.8942 N.ar    1  UNL1       -0.2423
     16 C          67.8028   94.9584    8.6955 C.ar    1  UNL1        0.0989
     17 C          67.3348   93.9477    9.7001 C.ar    1  UNL1        0.0207
     18 C          61.7847   88.5903   11.7309 C.3     1  UNL1        0.2068
     19 C          62.1256   87.2296   11.1997 C.2     1  UNL1        0.3580
     20 N          62.3786   86.0957   12.1485 N.2     1  UNL1       -0.0039
     21 C          62.7196   84.7350   11.6173 C.2     1  UNL1        0.3159
     22 C          62.8076   84.5081   10.1371 C.3     1  UNL1        0.2333
     23 C          62.5546   85.6420    9.1883 C.2     1  UNL1        0.3644
     24 O          62.6425   85.4152    7.7081 O.2     1  UNL1       -0.2422
     25 N          62.2136   87.0027    9.7195 N.am    1  UNL1        0.0289
     26 N          62.9725   83.6012   12.5662 N.pl3   1  UNL1       -0.1888
     27 C          63.4842   83.8798   13.9484 C.3     1  UNL1        0.2343
     28 C          63.7371   82.7460   14.8973 C.3     1  UNL1        0.1929
     29 O          63.4784   81.3334   14.4639 O.3     1  UNL1       -0.3449
     30 C          62.9668   81.0547   13.0817 C.3     1  UNL1        0.1929
     31 C          62.7138   82.1886   12.1329 C.3     1  UNL1        0.2343
@<TRIPOS>BOND
     1     1     2    2
     2     2    18    1
     3    18    19    1
     4    19    20    1
     5    20    21    2
     6    21    26    1
     7    26    27    1
     8    27    28    1
     9    28    29    1
    10    29    30    1
    11    30    31    1
    12    21    22    1
    13    22    23    1
    14    23    24    2
    15    23    25    1
    16     2     3   am
    17     3     4    1
    18     4     5    1
    19     5     6    1
    20     6     7   ar
    21     7    12    1
    22    12    13   ar
    23    13    14   ar
    24    14    15   ar
    25    15    16   ar
    26    16    17   ar
    27     7     8   ar
    28     8     9   ar
    29     9    10   ar
    30    10    11   ar
    31    25    19    2
    32    11     3    1
    33    31    26    1
    34    11     6   ar
    35    17    12   ar
@<TRIPOS>MOLECULE
*****
 31 35 0 0 0
SMALL
GASTEIGER

@<TRIPOS>ATOM
      1 O          61.8982   89.5674   14.2187 O.2     1  UNL1       -0.2739
      2 C          61.7286   89.8398   12.7535 C.2     1  UNL1        0.2419
      3 N          62.7458   90.6638   12.0212 N.am    1  UNL1       -0.2581
      4 C          62.7101   91.0178   10.5639 C.3     1  UNL1        0.1029
      5 C          63.9194   91.8513   10.2596 C.3     1  UNL1        0.0495
      6 C          64.7025   92.0126   11.5289 C.ar    1  UNL1       -0.0067
      7 C          65.9824   92.7329   11.8339 C.ar    1  UNL1       -0.0026
      8 C          66.5369   92.7194   13.2275 C.ar    1  UNL1       -0.0002
      9 C          65.8115   91.9854   14.3162 C.ar    1  UNL1        0.0013
     10 C          64.5317   91.2651   14.0112 C.ar    1  UNL1        0.0146
     11 C          63.9771   91.2787   12.6175 C.ar    1  UNL1        0.0499
     12 C          66.7078   93.4669   10.7452 C.ar    1  UNL1        0.0028
     13 C          66.5192   94.9461   10.5833 C.ar    1  UNL1        0.0207
     14 C          67.2445   95.6800    9.4946 C.ar    1  UNL1        0.0989
     15 N          68.1585   94.9346    8.5677 N.ar    1  UNL1       -0.2423
     16 C          68.3471   93.4553    8.7296 C.ar    1  UNL1        0.0989
     17 C          67.6217   92.7215    9.8183 C.ar    1  UNL1        0.0207
     18 C          60.5419   89.2880   12.0206 C.3     1  UNL1        0.2068
     19 C          60.7105   88.1256   11.0877 C.2     1  UNL1        0.3580
     20 N          61.6595   87.0170   11.4346 N.2     1  UNL1       -0.0039
     21 C          61.8281   85.8546   10.5017 C.2     1  UNL1        0.3159
     22 C          61.0476   85.8006    9.2219 C.3     1  UNL1        0.2333
     23 C          60.0986   86.9092    8.8750 C.2     1  UNL1        0.3644
     24 O          59.3180   86.8554    7.5951 O.2     1  UNL1       -0.2422
     25 N          59.9300   88.0717    9.8079 N.am    1  UNL1        0.0289
     26 N          62.7771   84.7460   10.8486 N.pl3   1  UNL1       -0.1888
     27 C          63.0728   84.4339   12.2858 C.3     1  UNL1        0.2343
     28 C          64.0218   83.3254   12.6326 C.3     1  UNL1        0.1929
     29 O          64.6754   82.5289   11.5425 O.3     1  UNL1       -0.3449
     30 C          64.3798   82.8409   10.1053 C.3     1  UNL1        0.1929
     31 C          63.4307   83.9495    9.7585 C.3     1  UNL1        0.2343
@<TRIPOS>BOND
     1     1     2    2
     2     2    18    1
     3    18    19    1
     4    19    20    1
     5    20    21    2
     6    21    26    1
     7    26    27    1
     8    27    28    1
     9    28    29    1
    10    29    30    1
    11    30    31    1
    12    21    22    1
    13    22    23    1
    14    23    24    2
    15    23    25    1
    16     2     3   am
    17     3     4    1
    18     4     5    1
    19     5     6    1
    20     6     7   ar
    21     7    12    1
    22    12    13   ar
    23    13    14   ar
    24    14    15   ar
    25    15    16   ar
    26    16    17   ar
    27     7     8   ar
    28     8     9   ar
    29     9    10   ar
    30    10    11   ar
    31    25    19    2
    32    11     3    1
    33    31    26    1
    34    11     6   ar
    35    17    12   ar
@<TRIPOS>MOLECULE
*****
 31 35 0 0 0
SMALL
GASTEIGER

@<TRIPOS>ATOM
      1 O          64.0796   88.4086   15.3115 O.2     1  UNL1       -0.2739
      2 C          63.5822   89.2953   14.2086 C.2     1  UNL1        0.2419
      3 N          63.1322   88.6958   12.9094 N.am    1  UNL1       -0.2581
      4 C          62.6133   89.4518   11.7223 C.3     1  UNL1        0.1029
      5 C          62.2825   88.4583   10.6484 C.3     1  UNL1        0.0495
      6 C          62.5970   87.0881   11.1718 C.ar    1  UNL1       -0.0067
      7 C          62.4730   85.7258   10.5564 C.ar    1  UNL1       -0.0026
      8 C          62.8742   84.5103   11.3384 C.ar    1  UNL1       -0.0002
      9 C          63.3994   84.6571   12.7358 C.ar    1  UNL1        0.0013
     10 C          63.5233   86.0194   13.3511 C.ar    1  UNL1        0.0146
     11 C          63.1222   87.2349   12.5691 C.ar    1  UNL1        0.0499
     12 C          61.9478   85.5790    9.1590 C.ar    1  UNL1        0.0028
     13 C          60.5704   86.0669    8.8204 C.ar    1  UNL1        0.0207
     14 C          60.0452   85.9201    7.4229 C.ar    1  UNL1        0.0989
     15 N          60.8975   85.2854    6.3643 N.ar    1  UNL1       -0.2423
     16 C          62.2749   84.7974    6.7030 C.ar    1  UNL1        0.0989
     17 C          62.8000   84.9442    8.1003 C.ar    1  UNL1        0.0207
     18 C          63.5349   90.7817   14.4051 C.3     1  UNL1        0.2068
     19 C          64.7742   91.6038   14.2100 C.2     1  UNL1        0.3580
     20 N          65.2655   91.9030   12.8247 N.2     1  UNL1       -0.0039
     21 C          66.5048   92.7252   12.6296 C.2     1  UNL1        0.3159
     22 C          67.2530   93.2482   13.8199 C.3     1  UNL1        0.2333
     23 C          66.7617   92.9490   15.2052 C.2     1  UNL1        0.3644
     24 O          67.5097   93.4721   16.3956 O.2     1  UNL1       -0.2422
     25 N          65.5223   92.1269   15.4003 N.am    1  UNL1        0.0289
     26 N          66.9961   93.0243   11.2443 N.pl3   1  UNL1       -0.1888
     27 C          66.5549   94.2764   10.5460 C.3     1  UNL1        0.2343
     28 C          67.0461   94.5755    9.1607 C.3     1  UNL1        0.1929
     29 O          67.9786   93.6225    8.4735 O.3     1  UNL1       -0.3449
     30 C          68.4198   92.3703    9.1717 C.3     1  UNL1        0.1929
     31 C          67.9285   92.0713   10.5571 C.3     1  UNL1        0.2343
@<TRIPOS>BOND
     1     1     2    2
     2     2    18    1
     3    18    19    1
     4    19    20    1
     5    20    21    2
     6    21    26    1
     7    26    27    1
     8    27    28    1
     9    28    29    1
    10    29    30    1
    11    30    31    1
    12    21    22    1
    13    22    23    1
    14    23    24    2
    15    23    25    1
    16     2     3   am
    17     3     4    1
    18     4     5    1
    19     5     6    1
    20     6     7   ar
    21     7    12    1
    22    12    13   ar
    23    13    14   ar
    24    14    15   ar
    25    15    16   ar
    26    16    17   ar
    27     7     8   ar
    28     8     9   ar
    29     9    10   ar
    30    10    11   ar
    31    25    19    2
    32    11     3    1
    33    31    26    1
    34    11     6   ar
    35    17    12   ar
@<TRIPOS>MOLECULE
*****
 31 35 0 0 0
SMALL
GASTEIGER

@<TRIPOS>ATOM
      1 O          61.7539   90.2711    9.4435 O.2     1  UNL1       -0.2739
      2 C          62.0038   89.4970   10.7038 C.2     1  UNL1        0.2419
      3 N          63.0584   89.9535   11.6678 N.am    1  UNL1       -0.2581
      4 C          63.4190   89.2854   12.9615 C.3     1  UNL1        0.1029
      5 C          64.5210   90.0772   13.6007 C.3     1  UNL1        0.0495
      6 C          64.8414   91.2348   12.7020 C.ar    1  UNL1       -0.0067
      7 C          65.8395   92.3485   12.8172 C.ar    1  UNL1       -0.0026
      8 C          65.9336   93.3858   11.7378 C.ar    1  UNL1       -0.0002
      9 C          65.0297   93.3093   10.5432 C.ar    1  UNL1        0.0013
     10 C          64.0316   92.1955   10.4281 C.ar    1  UNL1        0.0146
     11 C          63.9374   91.1583   11.5075 C.ar    1  UNL1        0.0499
     12 C          66.7435   92.4250   14.0118 C.ar    1  UNL1        0.0028
     13 C          68.2216   92.2298   13.8475 C.ar    1  UNL1        0.0207
     14 C          69.1256   92.3062   15.0422 C.ar    1  UNL1        0.0989
     15 N          68.5513   92.5780   16.4010 N.ar    1  UNL1       -0.2423
     16 C          67.0731   92.7732   16.5652 C.ar    1  UNL1        0.0989
     17 C          66.1693   92.6968   15.3706 C.ar    1  UNL1        0.0207
     18 C          61.1990   88.2663   11.0000 C.3     1  UNL1        0.2068
     19 C          61.7527   86.9112   10.6725 C.2     1  UNL1        0.3580
     20 N          61.9460   85.8970   11.7606 N.2     1  UNL1       -0.0039
     21 C          62.4997   84.5420   11.4332 C.2     1  UNL1        0.3159
     22 C          62.8603   84.2011   10.0177 C.3     1  UNL1        0.2333
     23 C          62.6670   85.2153    8.9296 C.2     1  UNL1        0.3644
     24 O          63.0275   84.8745    7.5139 O.2     1  UNL1       -0.2422
     25 N          62.1133   86.5704    9.2570 N.am    1  UNL1        0.0289
     26 N          62.6929   83.5278   12.5214 N.pl3   1  UNL1       -0.1888
     27 C          62.8511   82.0769   12.1750 C.3     1  UNL1        0.2343
     28 C          63.0443   81.0628   13.2633 C.3     1  UNL1        0.1929
     29 O          63.0794   81.4995   14.6978 O.3     1  UNL1       -0.3449
     30 C          62.9212   82.9504   15.0443 C.3     1  UNL1        0.1929
     31 C          62.7280   83.9645   13.9560 C.3     1  UNL1        0.2343
@<TRIPOS>BOND
     1     1     2    2
     2     2    18    1
     3    18    19    1
     4    19    20    1
     5    20    21    2
     6    21    26    1
     7    26    27    1
     8    27    28    1
     9    28    29    1
    10    29    30    1
    11    30    31    1
    12    21    22    1
    13    22    23    1
    14    23    24    2
    15    23    25    1
    16     2     3   am
    17     3     4    1
    18     4     5    1
    19     5     6    1
    20     6     7   ar
    21     7    12    1
    22    12    13   ar
    23    13    14   ar
    24    14    15   ar
    25    15    16   ar
    26    16    17   ar
    27     7     8   ar
    28     8     9   ar
    29     9    10   ar
    30    10    11   ar
    31    25    19    2
    32    11     3    1
    33    31    26    1
    34    11     6   ar
    35    17    12   ar
@<TRIPOS>MOLECULE
*****
 31 35 0 0 0
SMALL
GASTEIGER

@<TRIPOS>ATOM
      1 O          63.3275   90.4455   12.3674 O.2     1  UNL1       -0.2739
      2 C          63.8897   89.6088   13.4782 C.2     1  UNL1        0.2419
      3 N          63.7561   88.1154   13.4338 N.am    1  UNL1       -0.2581
      4 C          64.2652   87.1536   14.4661 C.3     1  UNL1        0.1029
      5 C          63.9138   85.7654   14.0196 C.3     1  UNL1        0.0495
      6 C          63.1875   85.8694   12.7112 C.ar    1  UNL1       -0.0067
      7 C          62.6023   84.8291   11.8027 C.ar    1  UNL1       -0.0026
      8 C          61.9198   85.2411   10.5322 C.ar    1  UNL1       -0.0002
      9 C          61.8224   86.6935   10.1702 C.ar    1  UNL1        0.0013
     10 C          62.4075   87.7338   11.0786 C.ar    1  UNL1        0.0146
     11 C          63.0901   87.3217   12.3491 C.ar    1  UNL1        0.0499
     12 C          62.6998   83.3766   12.1648 C.ar    1  UNL1        0.0028
     13 C          62.3900   82.9297   13.5627 C.ar    1  UNL1        0.0207
     14 C          62.4874   81.4773   13.9248 C.ar    1  UNL1        0.0989
     15 N          62.8947   80.4718   12.8889 N.ar    1  UNL1       -0.2423
     16 C          63.2045   80.9188   11.4909 C.ar    1  UNL1        0.0989
     17 C          63.1071   82.3711   11.1289 C.ar    1  UNL1        0.0207
     18 C          64.5854   90.2656   14.6335 C.3     1  UNL1        0.2068
     19 C          65.4662   91.4569   14.3995 C.2     1  UNL1        0.3580
     20 N          65.5679   92.0569   13.0286 N.2     1  UNL1       -0.0039
     21 C          66.4488   93.2483   12.7946 C.2     1  UNL1        0.3159
     22 C          67.2280   93.8397   13.9318 C.3     1  UNL1        0.2333
     23 C          67.1263   93.2398   15.3027 C.2     1  UNL1        0.3644
     24 O          67.9054   93.8312   16.4400 O.2     1  UNL1       -0.2422
     25 N          66.2454   92.0484   15.5367 N.am    1  UNL1        0.0289
     26 N          66.5505   93.8482   11.4236 N.pl3   1  UNL1       -0.1888
     27 C          66.0083   95.2225   11.1641 C.3     1  UNL1        0.2343
     28 C          66.1100   95.8223    9.7930 C.3     1  UNL1        0.1929
     29 O          66.7538   95.0479    8.6814 O.3     1  UNL1       -0.3449
     30 C          67.2960   93.6736    8.9408 C.3     1  UNL1        0.1929
     31 C          67.1943   93.0737   10.3120 C.3     1  UNL1        0.2343
@<TRIPOS>BOND
     1     1     2    2
     2     2    18    1
     3    18    19    1
     4    19    20    1
     5    20    21    2
     6    21    26    1
     7    26    27    1
     8    27    28    1
     9    28    29    1
    10    29    30    1
    11    30    31    1
    12    21    22    1
    13    22    23    1
    14    23    24    2
    15    23    25    1
    16     2     3   am
    17     3     4    1
    18     4     5    1
    19     5     6    1
    20     6     7   ar
    21     7    12    1
    22    12    13   ar
    23    13    14   ar
    24    14    15   ar
    25    15    16   ar
    26    16    17   ar
    27     7     8   ar
    28     8     9   ar
    29     9    10   ar
    30    10    11   ar
    31    25    19    2
    32    11     3    1
    33    31    26    1
    34    11     6   ar
    35    17    12   ar
@<TRIPOS>MOLECULE
*****
 31 35 0 0 0
SMALL
GASTEIGER

@<TRIPOS>ATOM
      1 O          63.3186   90.8258   16.8689 O.2     1  UNL1       -0.2739
      2 C          63.6418   90.4931   15.4424 C.2     1  UNL1        0.2419
      3 N          63.6577   89.0628   14.9908 N.am    1  UNL1       -0.2581
      4 C          63.9615   88.5795   13.6037 C.3     1  UNL1        0.1029
      5 C          63.8642   87.0826   13.6027 C.3     1  UNL1        0.0495
      6 C          63.5002   86.6409   14.9893 C.ar    1  UNL1       -0.0067
      7 C          63.2685   85.2824   15.5815 C.ar    1  UNL1       -0.0026
      8 C          62.9091   85.1476   17.0315 C.ar    1  UNL1       -0.0002
      9 C          62.7815   86.3714   17.8894 C.ar    1  UNL1        0.0013
     10 C          63.0133   87.7300   17.2972 C.ar    1  UNL1        0.0146
     11 C          63.3726   87.8647   15.8471 C.ar    1  UNL1        0.0499
     12 C          63.3961   84.0585   14.7235 C.ar    1  UNL1        0.0028
     13 C          62.4069   82.9394   14.8614 C.ar    1  UNL1        0.0207
     14 C          62.5346   81.7156   14.0035 C.ar    1  UNL1        0.0989
     15 N          63.6514   81.6109   13.0076 N.ar    1  UNL1       -0.2423
     16 C          64.6406   82.7301   12.8697 C.ar    1  UNL1        0.0989
     17 C          64.5130   83.9539   13.7277 C.ar    1  UNL1        0.0207
     18 C          63.9490   91.5909   14.4675 C.3     1  UNL1        0.2068
     19 C          65.3708   91.8791   14.0861 C.2     1  UNL1        0.3580
     20 N          65.7133   92.2115   12.6641 N.2     1  UNL1       -0.0039
     21 C          67.1351   92.4997   12.2828 C.2     1  UNL1        0.3159
     22 C          68.2145   92.4554   13.3234 C.3     1  UNL1        0.2333
     23 C          67.8720   92.1230   14.7454 C.2     1  UNL1        0.3644
     24 O          68.9513   92.0786   15.7862 O.2     1  UNL1       -0.2422
     25 N          66.4502   91.8348   15.1268 N.am    1  UNL1        0.0289
     26 N          67.4775   92.8322   10.8607 N.pl3   1  UNL1       -0.1888
     27 C          66.9037   94.0604   10.2185 C.3     1  UNL1        0.2343
     28 C          67.2462   94.3928    8.7965 C.3     1  UNL1        0.1929
     29 O          68.1624   93.4971    8.0166 O.3     1  UNL1       -0.3449
     30 C          68.7363   92.2689    8.6587 C.3     1  UNL1        0.1929
     31 C          68.3938   91.9365   10.0808 C.3     1  UNL1        0.2343
@<TRIPOS>BOND
     1     1     2    2
     2     2    18    1
     3    18    19    1
     4    19    20    1
     5    20    21    2
     6    21    26    1
     7    26    27    1
     8    27    28    1
     9    28    29    1
    10    29    30    1
    11    30    31    1
    12    21    22    1
    13    22    23    1
    14    23    24    2
    15    23    25    1
    16     2     3   am
    17     3     4    1
    18     4     5    1
    19     5     6    1
    20     6     7   ar
    21     7    12    1
    22    12    13   ar
    23    13    14   ar
    24    14    15   ar
    25    15    16   ar
    26    16    17   ar
    27     7     8   ar
    28     8     9   ar
    29     9    10   ar
    30    10    11   ar
    31    25    19    2
    32    11     3    1
    33    31    26    1
    34    11     6   ar
    35    17    12   ar
@<TRIPOS>MOLECULE
*****
 31 35 0 0 0
SMALL
GASTEIGER

@<TRIPOS>ATOM
      1 O          63.8770   89.4135   16.0430 O.2     1  UNL1       -0.2739
      2 C          63.6531   89.3581   14.5608 C.2     1  UNL1        0.2419
      3 N          63.5728   88.0325   13.8635 N.am    1  UNL1       -0.2581
      4 C          63.3540   87.8207   12.3947 C.3     1  UNL1        0.1029
      5 C          63.3431   86.3433   12.1359 C.3     1  UNL1        0.0495
      6 C          63.5551   85.6419   13.4449 C.ar    1  UNL1       -0.0067
      7 C          63.6373   84.1874   13.8024 C.ar    1  UNL1       -0.0026
      8 C          63.8614   83.7770   15.2276 C.ar    1  UNL1       -0.0002
      9 C          64.0034   84.8210   16.2953 C.ar    1  UNL1        0.0013
     10 C          63.9212   86.2754   15.9377 C.ar    1  UNL1        0.0146
     11 C          63.6971   86.6859   14.5125 C.ar    1  UNL1        0.0499
     12 C          63.4953   83.1434   12.7347 C.ar    1  UNL1        0.0028
     13 C          62.7596   81.8690   13.0250 C.ar    1  UNL1        0.0207
     14 C          62.6176   80.8250   11.9573 C.ar    1  UNL1        0.0989
     15 N          63.2114   81.0555   10.5993 N.ar    1  UNL1       -0.2423
     16 C          63.9472   82.3301   10.3090 C.ar    1  UNL1        0.0989
     17 C          64.0892   83.3740   11.3767 C.ar    1  UNL1        0.0207
     18 C          63.5097   90.6283   13.7760 C.3     1  UNL1        0.2068
     19 C          64.6005   91.6573   13.8087 C.2     1  UNL1        0.3580
     20 N          64.9733   92.3952   12.5571 N.2     1  UNL1       -0.0039
     21 C          66.0642   93.4243   12.5898 C.2     1  UNL1        0.3159
     22 C          66.7823   93.7155   13.8742 C.3     1  UNL1        0.2333
     23 C          66.4095   92.9776   15.1257 C.2     1  UNL1        0.3644
     24 O          67.1276   93.2688   16.4101 O.2     1  UNL1       -0.2422
     25 N          65.3187   91.9486   15.0930 N.am    1  UNL1        0.0289
     26 N          66.4369   94.1621   11.3382 N.pl3   1  UNL1       -0.1888
     27 C          67.1679   93.4514   10.2379 C.3     1  UNL1        0.2343
     28 C          67.5405   94.1893    8.9863 C.3     1  UNL1        0.1929
     29 O          67.1823   95.6380    8.8349 O.3     1  UNL1       -0.3449
     30 C          66.4513   96.3488    9.9350 C.3     1  UNL1        0.1929
     31 C          66.0786   95.6108   11.1867 C.3     1  UNL1        0.2343
@<TRIPOS>BOND
     1     1     2    2
     2     2    18    1
     3    18    19    1
     4    19    20    1
     5    20    21    2
     6    21    26    1
     7    26    27    1
     8    27    28    1
     9    28    29    1
    10    29    30    1
    11    30    31    1
    12    21    22    1
    13    22    23    1
    14    23    24    2
    15    23    25    1
    16     2     3   am
    17     3     4    1
    18     4     5    1
    19     5     6    1
    20     6     7   ar
    21     7    12    1
    22    12    13   ar
    23    13    14   ar
    24    14    15   ar
    25    15    16   ar
    26    16    17   ar
    27     7     8   ar
    28     8     9   ar
    29     9    10   ar
    30    10    11   ar
    31    25    19    2
    32    11     3    1
    33    31    26    1
    34    11     6   ar
    35    17    12   ar
