@<TRIPOS>MOLECULE
*****
 28 30 0 0 0
SMALL
GASTEIGER

@<TRIPOS>ATOM
      1 C          64.7405   91.0554   14.5653 C.ar    1  UNL1        0.0717
      2 C          66.1917   91.3216   14.8352 C.ar    1  UNL1        0.0249
      3 C          67.0682   91.8709   13.7488 C.ar    1  UNL1        0.0818
      4 N          66.4933   92.1538   12.3925 N.ar    1  UNL1       -0.2852
      5 C          67.1074   92.6930   11.1347 C.ar    1  UNL1        0.1829
      6 N          66.0356   92.7600   10.0875 N.ar    1  UNL1       -0.2220
      7 C          64.7591   92.2622   10.6980 C.ar    1  UNL1        0.1194
      8 C          65.0420   91.8875   12.1227 C.ar    1  UNL1        0.0981
      9 C          64.1656   91.3383   13.2091 C.ar    1  UNL1        0.0708
     10 O          63.3779   91.4051   16.7496 O.2     1  UNL1       -0.2680
     11 C          63.8639   90.5062   15.6517 C.2     1  UNL1        0.2692
     12 N          63.4736   89.0579   15.6401 N.am    1  UNL1       -0.1896
     13 H          63.7927   88.4679   14.9195 H       1  UNL1        0.1828
     14 O          62.5971   88.5086   16.7264 O.3     1  UNL1       -0.2635
     15 C          62.9829   87.2431   17.4335 C.3     1  UNL1        0.2026
     16 C          62.2172   85.9787   17.1790 C.3     1  UNL1        0.1719
     17 O          60.7637   86.0428   16.8135 O.3     1  UNL1       -0.3794
     18 H          60.2568   86.3916   17.5634 H       1  UNL1        0.2105
     19 N          62.7143   91.0720   12.9392 N.pl3   1  UNL1       -0.3095
     20 H          62.0227   91.5879   13.4134 H       1  UNL1        0.1523
     21 C          62.3167   90.0197   11.9468 C.ar    1  UNL1        0.0762
     22 C          61.3002   90.3324   10.8890 C.ar    1  UNL1        0.0173
     23 C          60.9026   89.2801    9.8966 C.ar    1  UNL1        0.0072
     24 C          61.5215   87.9153    9.9622 C.ar    1  UNL1        0.0324
     25 I          61.1239   86.8631    8.9698 I       1  UNL1       -0.0424
     26 C          62.5379   87.6028   11.0200 C.ar    1  UNL1        0.0367
     27 C          62.9355   88.6550   12.0124 C.ar    1  UNL1        0.1538
     28 F          63.9520   88.3424   13.0703 F       1  UNL1       -0.2028
@<TRIPOS>BOND
     1    10    11    2
     2    11    12   am
     3    12    14    1
     4    14    15    1
     5    15    16    1
     6    16    17    1
     7    11     1    1
     8     1     2   ar
     9     2     3   ar
    10     3     4   ar
    11     4     5   ar
    12     5     6   ar
    13     6     7   ar
    14     7     8   ar
    15     8     9   ar
    16     9    19    1
    17    19    21    1
    18    21    22   ar
    19    22    23   ar
    20    23    24   ar
    21    24    25    1
    22    24    26   ar
    23    26    27   ar
    24    27    28    1
    25     9     1   ar
    26    27    21   ar
    27     8     4   ar
    28    12    13    1
    29    17    18    1
    30    19    20    1
@<TRIPOS>MOLECULE
*****
 28 30 0 0 0
SMALL
GASTEIGER

@<TRIPOS>ATOM
      1 C          64.7431   91.0783   14.5513 C.ar    1  UNL1        0.0717
      2 C          66.1904   91.3438   14.8420 C.ar    1  UNL1        0.0249
      3 C          67.0799   91.9042   13.7720 C.ar    1  UNL1        0.0818
      4 N          66.5219   92.1990   12.4112 N.ar    1  UNL1       -0.2852
      5 C          67.1511   92.7506   11.1663 C.ar    1  UNL1        0.1829
      6 N          66.0926   92.8259   10.1062 N.ar    1  UNL1       -0.2220
      7 C          64.8091   92.3209   10.6959 C.ar    1  UNL1        0.1194
      8 C          65.0744   91.9334   12.1205 C.ar    1  UNL1        0.0981
      9 C          64.1851   91.3731   13.1906 C.ar    1  UNL1        0.0708
     10 O          63.3993   91.3917   16.7527 O.2     1  UNL1       -0.2680
     11 C          63.8536   90.5180   15.6214 C.2     1  UNL1        0.2692
     12 N          63.4185   89.0838   15.5599 N.am    1  UNL1       -0.1896
     13 H          63.7167   88.5103   14.8174 H       1  UNL1        0.1828
     14 O          62.5291   88.5234   16.6299 O.3     1  UNL1       -0.2635
     15 C          62.9657   87.3222   17.4152 C.3     1  UNL1        0.2026
     16 C          62.2392   86.0193   17.2586 C.3     1  UNL1        0.1719
     17 O          60.7992   86.0094   16.8384 O.3     1  UNL1       -0.3794
     18 H          60.2570   86.4152   17.5328 H       1  UNL1        0.2105
     19 N          62.7377   91.1076   12.8998 N.pl3   1  UNL1       -0.3095
     20 H          62.0448   91.7045   13.2644 H       1  UNL1        0.1523
     21 C          62.3459   89.9325   12.0537 C.ar    1  UNL1        0.0762
     22 C          63.1250   88.6536   12.1395 C.ar    1  UNL1        0.0173
     23 C          62.7333   87.4786   11.2934 C.ar    1  UNL1        0.0072
     24 C          61.5624   87.5825   10.3615 C.ar    1  UNL1        0.0324
     25 I          61.1707   86.4076    9.5154 I       1  UNL1       -0.0424
     26 C          60.7834   88.8615   10.2758 C.ar    1  UNL1        0.0367
     27 C          61.1751   90.0364   11.1219 C.ar    1  UNL1        0.1538
     28 F          60.3960   91.3154   11.0361 F       1  UNL1       -0.2028
@<TRIPOS>BOND
     1    10    11    2
     2    11    12   am
     3    12    14    1
     4    14    15    1
     5    15    16    1
     6    16    17    1
     7    11     1    1
     8     1     2   ar
     9     2     3   ar
    10     3     4   ar
    11     4     5   ar
    12     5     6   ar
    13     6     7   ar
    14     7     8   ar
    15     8     9   ar
    16     9    19    1
    17    19    21    1
    18    21    22   ar
    19    22    23   ar
    20    23    24   ar
    21    24    25    1
    22    24    26   ar
    23    26    27   ar
    24    27    28    1
    25     9     1   ar
    26    27    21   ar
    27     8     4   ar
    28    12    13    1
    29    17    18    1
    30    19    20    1
@<TRIPOS>MOLECULE
*****
 28 30 0 0 0
SMALL
GASTEIGER

@<TRIPOS>ATOM
      1 C          62.1263   86.6214   11.2933 C.ar    1  UNL1        0.0717
      2 C          61.9628   85.5726   10.2336 C.ar    1  UNL1        0.0249
      3 C          61.2266   85.8946    8.9669 C.ar    1  UNL1        0.0818
      4 N          60.6540   87.2655    8.7601 N.ar    1  UNL1       -0.2852
      5 C          59.8848   87.8709    7.6235 C.ar    1  UNL1        0.1829
      6 N          59.5729   89.2939    7.9809 N.ar    1  UNL1       -0.2220
      7 C          60.1493   89.5679    9.3384 C.ar    1  UNL1        0.1194
      8 C          60.8175   88.3143    9.8199 C.ar    1  UNL1        0.0981
      9 C          61.5536   87.9923   11.0866 C.ar    1  UNL1        0.0708
     10 O          63.7863   87.3122   13.1687 O.2     1  UNL1       -0.2680
     11 C          62.8625   86.2994   12.5601 C.2     1  UNL1        0.2692
     12 N          62.6747   84.9645   13.2180 N.am    1  UNL1       -0.1896
     13 H          62.0683   84.2998   12.8184 H       1  UNL1        0.1828
     14 O          63.4108   84.6425   14.4846 O.3     1  UNL1       -0.2635
     15 C          62.6609   84.5236   15.7784 C.3     1  UNL1        0.2026
     16 C          62.6369   85.6748   16.7397 C.3     1  UNL1        0.1719
     17 O          61.3288   86.2910   17.1392 O.3     1  UNL1       -0.3794
     18 H          60.9223   86.7153   16.3675 H       1  UNL1        0.2105
     19 N          61.7171   89.0411   12.1464 N.pl3   1  UNL1       -0.3095
     20 H          61.1238   89.0437   12.9320 H       1  UNL1        0.1523
     21 C          62.7847   90.0860   12.0092 C.ar    1  UNL1        0.0762
     22 C          63.0875   90.6765   10.6640 C.ar    1  UNL1        0.0173
     23 C          64.1551   91.7214   10.5268 C.ar    1  UNL1        0.0072
     24 C          64.9197   92.1755   11.7348 C.ar    1  UNL1        0.0324
     25 I          65.9872   93.2203   11.5977 I       1  UNL1       -0.0424
     26 C          64.6167   91.5849   13.0799 C.ar    1  UNL1        0.0367
     27 C          63.5492   90.5401   13.2171 C.ar    1  UNL1        0.1538
     28 F          63.2463   89.9495   14.5623 F       1  UNL1       -0.2028
@<TRIPOS>BOND
     1    10    11    2
     2    11    12   am
     3    12    14    1
     4    14    15    1
     5    15    16    1
     6    16    17    1
     7    11     1    1
     8     1     2   ar
     9     2     3   ar
    10     3     4   ar
    11     4     5   ar
    12     5     6   ar
    13     6     7   ar
    14     7     8   ar
    15     8     9   ar
    16     9    19    1
    17    19    21    1
    18    21    22   ar
    19    22    23   ar
    20    23    24   ar
    21    24    25    1
    22    24    26   ar
    23    26    27   ar
    24    27    28    1
    25     9     1   ar
    26    27    21   ar
    27     8     4   ar
    28    12    13    1
    29    17    18    1
    30    19    20    1
@<TRIPOS>MOLECULE
*****
 28 30 0 0 0
SMALL
GASTEIGER

@<TRIPOS>ATOM
      1 C          62.0317   86.6740   11.1882 C.ar    1  UNL1        0.0717
      2 C          61.8707   85.6393   10.1143 C.ar    1  UNL1        0.0249
      3 C          61.1338   85.9768    8.8520 C.ar    1  UNL1        0.0818
      4 N          60.5580   87.3490    8.6638 N.ar    1  UNL1       -0.2852
      5 C          59.7874   87.9680    7.5356 C.ar    1  UNL1        0.1829
      6 N          59.4722   89.3853    7.9123 N.ar    1  UNL1       -0.2220
      7 C          60.0479   89.6422    9.2733 C.ar    1  UNL1        0.1194
      8 C          60.7190   88.3837    9.7379 C.ar    1  UNL1        0.0981
      9 C          61.4558   88.0462   11.0000 C.ar    1  UNL1        0.0708
     10 O          63.6727   87.3511   13.0852 O.2     1  UNL1       -0.2680
     11 C          62.7686   86.3365   12.4505 C.2     1  UNL1        0.2692
     12 N          62.6012   84.9844   13.0779 N.am    1  UNL1       -0.1896
     13 H          62.0077   84.3184   12.6613 H       1  UNL1        0.1828
     14 O          63.3380   84.6469   14.3401 O.3     1  UNL1       -0.2635
     15 C          62.9957   83.3980   15.0973 C.3     1  UNL1        0.2026
     16 C          62.1925   82.3169   14.4368 C.3     1  UNL1        0.1719
     17 O          62.4401   80.8792   14.7859 O.3     1  UNL1       -0.3794
     18 H          63.3286   80.6236   14.4926 H       1  UNL1        0.2105
     19 N          61.6168   89.0809   12.0741 N.pl3   1  UNL1       -0.3095
     20 H          61.0043   89.0897   12.8448 H       1  UNL1        0.1523
     21 C          62.7110   90.1021   11.9737 C.ar    1  UNL1        0.0762
     22 C          63.0704   90.6876   10.6403 C.ar    1  UNL1        0.0173
     23 C          64.1646   91.7088   10.5400 C.ar    1  UNL1        0.0072
     24 C          64.8993   92.1443   11.7731 C.ar    1  UNL1        0.0324
     25 I          65.9934   93.1655   11.6728 I       1  UNL1       -0.0424
     26 C          64.5399   91.5588   13.1064 C.ar    1  UNL1        0.0367
     27 C          63.4457   90.5376   13.2067 C.ar    1  UNL1        0.1538
     28 F          63.0863   89.9521   14.5402 F       1  UNL1       -0.2028
@<TRIPOS>BOND
     1    10    11    2
     2    11    12   am
     3    12    14    1
     4    14    15    1
     5    15    16    1
     6    16    17    1
     7    11     1    1
     8     1     2   ar
     9     2     3   ar
    10     3     4   ar
    11     4     5   ar
    12     5     6   ar
    13     6     7   ar
    14     7     8   ar
    15     8     9   ar
    16     9    19    1
    17    19    21    1
    18    21    22   ar
    19    22    23   ar
    20    23    24   ar
    21    24    25    1
    22    24    26   ar
    23    26    27   ar
    24    27    28    1
    25     9     1   ar
    26    27    21   ar
    27     8     4   ar
    28    12    13    1
    29    17    18    1
    30    19    20    1
@<TRIPOS>MOLECULE
*****
 28 30 0 0 0
SMALL
GASTEIGER

@<TRIPOS>ATOM
      1 C          63.0483   91.0131   11.2603 C.ar    1  UNL1        0.0717
      2 C          63.7852   91.8973   10.2985 C.ar    1  UNL1        0.0249
      3 C          65.0656   92.5575   10.7167 C.ar    1  UNL1        0.0818
      4 N          65.6090   92.3335   12.0967 N.ar    1  UNL1       -0.2852
      5 C          66.8381   92.8463   12.7869 C.ar    1  UNL1        0.1829
      6 N          66.8608   92.2789   14.1752 N.ar    1  UNL1       -0.2220
      7 C          65.6457   91.4156   14.3432 C.ar    1  UNL1        0.1194
      8 C          64.8720   91.4493   13.0585 C.ar    1  UNL1        0.0981
      9 C          63.5917   90.7891   12.6403 C.ar    1  UNL1        0.0708
     10 O          60.6818   90.1172   11.8494 O.2     1  UNL1       -0.2680
     11 C          61.7679   90.3529   10.8421 C.2     1  UNL1        0.2692
     12 N          61.5738   89.9284    9.4166 N.am    1  UNL1       -0.1896
     13 H          62.2867   90.0831    8.7555 H       1  UNL1        0.1828
     14 O          60.2935   89.2682    8.9984 O.3     1  UNL1       -0.2635
     15 C          60.0884   87.8034    9.2485 C.3     1  UNL1        0.2026
     16 C          59.6868   86.8992    8.1211 C.3     1  UNL1        0.1719
     17 O          58.2349   86.6334    7.8536 O.3     1  UNL1       -0.3794
     18 H          57.8533   86.1434    8.5987 H       1  UNL1        0.2105
     19 N          62.8547   89.9049   13.6022 N.pl3   1  UNL1       -0.3095
     20 H          62.0997   90.2643   14.1218 H       1  UNL1        0.1523
     21 C          63.2682   88.4730   13.7723 C.ar    1  UNL1        0.0762
     22 C          63.1324   87.5123   12.6284 C.ar    1  UNL1        0.0173
     23 C          63.5458   86.0804   12.7985 C.ar    1  UNL1        0.0072
     24 C          64.0950   85.6094   14.1125 C.ar    1  UNL1        0.0324
     25 I          64.5084   84.1776   14.2826 I       1  UNL1       -0.0424
     26 C          64.2308   86.5702   15.2563 C.ar    1  UNL1        0.0367
     27 C          63.8173   88.0020   15.0862 C.ar    1  UNL1        0.1538
     28 F          63.9531   88.9628   16.2301 F       1  UNL1       -0.2028
@<TRIPOS>BOND
     1    10    11    2
     2    11    12   am
     3    12    14    1
     4    14    15    1
     5    15    16    1
     6    16    17    1
     7    11     1    1
     8     1     2   ar
     9     2     3   ar
    10     3     4   ar
    11     4     5   ar
    12     5     6   ar
    13     6     7   ar
    14     7     8   ar
    15     8     9   ar
    16     9    19    1
    17    19    21    1
    18    21    22   ar
    19    22    23   ar
    20    23    24   ar
    21    24    25    1
    22    24    26   ar
    23    26    27   ar
    24    27    28    1
    25     9     1   ar
    26    27    21   ar
    27     8     4   ar
    28    12    13    1
    29    17    18    1
    30    19    20    1
@<TRIPOS>MOLECULE
*****
 28 30 0 0 0
SMALL
GASTEIGER

@<TRIPOS>ATOM
      1 C          61.5910   89.6306   10.2553 C.ar    1  UNL1        0.0717
      2 C          62.2794   90.9479   10.0540 C.ar    1  UNL1        0.0249
      3 C          63.3445   91.3918   11.0124 C.ar    1  UNL1        0.0818
      4 N          63.7212   90.5183   12.1721 N.ar    1  UNL1       -0.2852
      5 C          64.7256   90.6894   13.2729 C.ar    1  UNL1        0.1829
      6 N          64.6580   89.4778   14.1546 N.ar    1  UNL1       -0.2220
      7 C          63.6118   88.5578   13.5987 C.ar    1  UNL1        0.1194
      8 C          63.0328   89.2008   12.3734 C.ar    1  UNL1        0.0981
      9 C          61.9677   88.7570   11.4150 C.ar    1  UNL1        0.0708
     10 O          59.6259   88.0411    9.6539 O.2     1  UNL1       -0.2680
     11 C          60.5259   89.1867    9.2969 C.2     1  UNL1        0.2692
     12 N          60.3608   89.8884    7.9815 N.am    1  UNL1       -0.1896
     13 H          60.9516   90.6403    7.7472 H       1  UNL1        0.1828
     14 O          59.2957   89.4446    7.0231 O.3     1  UNL1       -0.2635
     15 C          59.2139   90.0574    5.6564 C.3     1  UNL1        0.2026
     16 C          58.2948   91.2166    5.4081 C.3     1  UNL1        0.1719
     17 O          58.8619   92.5764    5.1263 O.3     1  UNL1       -0.3794
     18 H          59.3259   92.9026    5.9132 H       1  UNL1        0.2105
     19 N          61.2793   87.4396   11.6163 N.pl3   1  UNL1       -0.3095
     20 H          60.3399   87.4148   11.9098 H       1  UNL1        0.1523
     21 C          62.0223   86.1598   11.3705 C.ar    1  UNL1        0.0762
     22 C          62.3281   85.2387   12.5142 C.ar    1  UNL1        0.0173
     23 C          63.0710   83.9589   12.2683 C.ar    1  UNL1        0.0072
     24 C          63.5081   83.6004   10.8789 C.ar    1  UNL1        0.0324
     25 I          64.2510   82.3207   10.6330 I       1  UNL1       -0.0424
     26 C          63.2022   84.5216    9.7353 C.ar    1  UNL1        0.0367
     27 C          62.4593   85.8013    9.9812 C.ar    1  UNL1        0.1538
     28 F          62.1534   86.7225    8.8375 F       1  UNL1       -0.2028
@<TRIPOS>BOND
     1    10    11    2
     2    11    12   am
     3    12    14    1
     4    14    15    1
     5    15    16    1
     6    16    17    1
     7    11     1    1
     8     1     2   ar
     9     2     3   ar
    10     3     4   ar
    11     4     5   ar
    12     5     6   ar
    13     6     7   ar
    14     7     8   ar
    15     8     9   ar
    16     9    19    1
    17    19    21    1
    18    21    22   ar
    19    22    23   ar
    20    23    24   ar
    21    24    25    1
    22    24    26   ar
    23    26    27   ar
    24    27    28    1
    25     9     1   ar
    26    27    21   ar
    27     8     4   ar
    28    12    13    1
    29    17    18    1
    30    19    20    1
@<TRIPOS>MOLECULE
*****
 28 30 0 0 0
SMALL
GASTEIGER

@<TRIPOS>ATOM
      1 C          60.9011   87.9064    9.4005 C.ar    1  UNL1        0.0717
      2 C          61.0611   86.7029    8.5198 C.ar    1  UNL1        0.0249
      3 C          61.8122   85.5036    9.0176 C.ar    1  UNL1        0.0818
      4 N          62.4033   85.5081   10.3963 N.ar    1  UNL1       -0.2852
      5 C          63.1897   84.4802   11.1544 C.ar    1  UNL1        0.1829
      6 N          63.5157   85.0485   12.5038 N.ar    1  UNL1       -0.2220
      7 C          62.9308   86.4277   12.5795 C.ar    1  UNL1        0.1194
      8 C          62.2432   86.7118   11.2770 C.ar    1  UNL1        0.0981
      9 C          61.4922   87.9109   10.7791 C.ar    1  UNL1        0.0708
     10 O          59.7573   90.1941    9.8570 O.2     1  UNL1       -0.2680
     11 C          60.1500   89.1057    8.9026 C.2     1  UNL1        0.2692
     12 N          59.7916   89.2163    7.4503 N.am    1  UNL1       -0.1896
     13 H          60.0494   88.5019    6.8238 H       1  UNL1        0.1828
     14 O          59.0406   90.4155    6.9524 O.3     1  UNL1       -0.2635
     15 C          58.5959   90.4809    5.5212 C.3     1  UNL1        0.2026
     16 C          57.3484   91.2300    5.1571 C.3     1  UNL1        0.1719
     17 O          56.0127   90.5542    5.2535 O.3     1  UNL1       -0.3794
     18 H          55.9662   89.8356    4.6036 H       1  UNL1        0.2105
     19 N          61.3321   89.1145   11.6598 N.pl3   1  UNL1       -0.3095
     20 H          60.4454   89.3478   12.0183 H       1  UNL1        0.1523
     21 C          62.5232   89.9629   11.9943 C.ar    1  UNL1        0.0762
     22 C          63.0779   89.9606   13.3880 C.ar    1  UNL1        0.0173
     23 C          64.2690   90.8089   13.7225 C.ar    1  UNL1        0.0072
     24 C          64.9053   91.6594   12.6633 C.ar    1  UNL1        0.0324
     25 I          66.0963   92.5076   12.9977 I       1  UNL1       -0.0424
     26 C          64.3505   91.6616   11.2696 C.ar    1  UNL1        0.0367
     27 C          63.1595   90.8133   10.9352 C.ar    1  UNL1        0.1538
     28 F          62.6048   90.8155    9.5415 F       1  UNL1       -0.2028
@<TRIPOS>BOND
     1    10    11    2
     2    11    12   am
     3    12    14    1
     4    14    15    1
     5    15    16    1
     6    16    17    1
     7    11     1    1
     8     1     2   ar
     9     2     3   ar
    10     3     4   ar
    11     4     5   ar
    12     5     6   ar
    13     6     7   ar
    14     7     8   ar
    15     8     9   ar
    16     9    19    1
    17    19    21    1
    18    21    22   ar
    19    22    23   ar
    20    23    24   ar
    21    24    25    1
    22    24    26   ar
    23    26    27   ar
    24    27    28    1
    25     9     1   ar
    26    27    21   ar
    27     8     4   ar
    28    12    13    1
    29    17    18    1
    30    19    20    1
@<TRIPOS>MOLECULE
*****
 28 30 0 0 0
SMALL
GASTEIGER

@<TRIPOS>ATOM
      1 C          61.7789   87.4230   11.4674 C.ar    1  UNL1        0.0717
      2 C          61.8832   85.9902   11.0361 C.ar    1  UNL1        0.0249
      3 C          62.7816   85.0466   11.7796 C.ar    1  UNL1        0.0818
      4 N          63.5756   85.5360   12.9543 N.ar    1  UNL1       -0.2852
      5 C          64.5372   84.8438   13.8743 C.ar    1  UNL1        0.1829
      6 N          65.0271   85.8489   14.8741 N.ar    1  UNL1       -0.2220
      7 C          64.3684   87.1623   14.5721 C.ar    1  UNL1        0.1194
      8 C          63.4713   86.9689   13.3855 C.ar    1  UNL1        0.0981
      9 C          62.5730   87.9124   12.6421 C.ar    1  UNL1        0.0708
     10 O          59.9933   89.3101   11.4804 O.2     1  UNL1       -0.2680
     11 C          60.8805   88.3666   10.7239 C.2     1  UNL1        0.2692
     12 N          60.8695   88.3665    9.2240 N.am    1  UNL1       -0.1896
     13 H          61.4519   87.7472    8.7275 H       1  UNL1        0.1828
     14 O          59.9712   89.3100    8.4805 O.3     1  UNL1       -0.2635
     15 C          59.3761   88.9000    7.1660 C.3     1  UNL1        0.2026
     16 C          59.1949   89.9144    6.0759 C.3     1  UNL1        0.1719
     17 O          60.3238   90.8320    5.7103 O.3     1  UNL1       -0.3794
     18 H          60.5124   91.4251    6.4543 H       1  UNL1        0.2105
     19 N          62.4686   89.3453   13.0734 N.pl3   1  UNL1       -0.3095
     20 H          61.7853   89.6134   13.7295 H       1  UNL1        0.1523
     21 C          63.4055   90.3697   12.5049 C.ar    1  UNL1        0.0762
     22 C          63.2450   90.8267   11.0853 C.ar    1  UNL1        0.0173
     23 C          64.1819   91.8512   10.5168 C.ar    1  UNL1        0.0072
     24 C          65.2790   92.4185   11.3681 C.ar    1  UNL1        0.0324
     25 I          66.2157   93.4428   10.7997 I       1  UNL1       -0.0424
     26 C          65.4393   91.9613   12.7877 C.ar    1  UNL1        0.0367
     27 C          64.5025   90.9370   13.3561 C.ar    1  UNL1        0.1538
     28 F          64.6629   90.4799   14.7758 F       1  UNL1       -0.2028
@<TRIPOS>BOND
     1    10    11    2
     2    11    12   am
     3    12    14    1
     4    14    15    1
     5    15    16    1
     6    16    17    1
     7    11     1    1
     8     1     2   ar
     9     2     3   ar
    10     3     4   ar
    11     4     5   ar
    12     5     6   ar
    13     6     7   ar
    14     7     8   ar
    15     8     9   ar
    16     9    19    1
    17    19    21    1
    18    21    22   ar
    19    22    23   ar
    20    23    24   ar
    21    24    25    1
    22    24    26   ar
    23    26    27   ar
    24    27    28    1
    25     9     1   ar
    26    27    21   ar
    27     8     4   ar
    28    12    13    1
    29    17    18    1
    30    19    20    1
@<TRIPOS>MOLECULE
*****
 28 30 0 0 0
SMALL
GASTEIGER

@<TRIPOS>ATOM
      1 C          62.9723   84.8745   10.3259 C.ar    1  UNL1        0.0717
      2 C          63.7758   83.6160   10.1841 C.ar    1  UNL1        0.0249
      3 C          64.3713   82.9656   11.3976 C.ar    1  UNL1        0.0818
      4 N          64.1632   83.5739   12.7528 N.ar    1  UNL1       -0.2852
      5 C          64.6242   83.1619   14.1194 C.ar    1  UNL1        0.1829
      6 N          64.1055   84.1659   15.1058 N.ar    1  UNL1       -0.2220
      7 C          63.3240   85.1984   14.3488 C.ar    1  UNL1        0.1194
      8 C          63.3596   84.8325   12.8946 C.ar    1  UNL1        0.0981
      9 C          62.7641   85.4829   11.6811 C.ar    1  UNL1        0.0708
     10 O          63.2661   85.9870    7.9965 O.2     1  UNL1       -0.2680
     11 C          62.3767   85.5249    9.1124 C.2     1  UNL1        0.2692
     12 N          60.8918   85.7132    9.0150 N.am    1  UNL1       -0.1896
     13 H          60.3081   85.4099    9.7475 H       1  UNL1        0.1828
     14 O          60.2963   86.3636    7.8016 O.3     1  UNL1       -0.2635
     15 C          59.2488   87.4259    7.9579 C.3     1  UNL1        0.2026
     16 C          59.2312   88.6041    7.0297 C.3     1  UNL1        0.1719
     17 O          59.8902   89.8889    7.4362 O.3     1  UNL1       -0.3794
     18 H          59.4164   90.2704    8.1917 H       1  UNL1        0.2105
     19 N          61.9606   86.7415   11.8228 N.pl3   1  UNL1       -0.3095
     20 H          60.9775   86.6973   11.8511 H       1  UNL1        0.1523
     21 C          62.6549   88.0676   11.9216 C.ar    1  UNL1        0.0762
     22 C          63.4509   88.4079   13.1466 C.ar    1  UNL1        0.0173
     23 C          64.1452   89.7339   13.2453 C.ar    1  UNL1        0.0072
     24 C          64.0435   90.7194   12.1191 C.ar    1  UNL1        0.0324
     25 I          64.7378   92.0454   12.2178 I       1  UNL1       -0.0424
     26 C          63.2475   90.3790   10.8941 C.ar    1  UNL1        0.0367
     27 C          62.5532   89.0530   10.7954 C.ar    1  UNL1        0.1538
     28 F          61.7572   88.7127    9.5704 F       1  UNL1       -0.2028
@<TRIPOS>BOND
     1    10    11    2
     2    11    12   am
     3    12    14    1
     4    14    15    1
     5    15    16    1
     6    16    17    1
     7    11     1    1
     8     1     2   ar
     9     2     3   ar
    10     3     4   ar
    11     4     5   ar
    12     5     6   ar
    13     6     7   ar
    14     7     8   ar
    15     8     9   ar
    16     9    19    1
    17    19    21    1
    18    21    22   ar
    19    22    23   ar
    20    23    24   ar
    21    24    25    1
    22    24    26   ar
    23    26    27   ar
    24    27    28    1
    25     9     1   ar
    26    27    21   ar
    27     8     4   ar
    28    12    13    1
    29    17    18    1
    30    19    20    1
