@<TRIPOS>MOLECULE
*****
 16 17 0 0 0
SMALL
GASTEIGER

@<TRIPOS>ATOM
      1 C          63.9054   83.5077   11.7445 C.ar    1  UNL1        0.1415
      2 C          63.9347   83.2771   10.2627 C.ar    1  UNL1        0.0370
      3 C          63.2543   84.2440    9.3396 C.ar    1  UNL1        0.0031
      4 C          62.5445   85.4415    9.8984 C.ar    1  UNL1        0.0003
      5 C          62.5152   85.6720   11.3802 C.ar    1  UNL1        0.0062
      6 C          63.1956   84.7051   12.3033 C.ar    1  UNL1        0.0711
      7 C          63.1663   84.9357   13.7852 C.ar    1  UNL1        0.1799
      8 C          64.2942   85.4707   14.6168 C.ar    1  UNL1        0.0643
      9 C          63.8289   85.5374   16.0412 C.ar    1  UNL1        0.1438
     10 N          62.4133   85.0437   16.0900 N.ar    1  UNL1       -0.0753
     11 O          62.0038   84.6718   14.6957 O.2     1  UNL1       -0.3532
     12 O          64.5858   82.5407   12.6676 O.3     1  UNL1       -0.4754
     13 C          63.8285   81.3679   13.2161 C.3     1  UNL1        0.2054
     14 C          62.3454   81.2715   13.0133 C.3     1  UNL1        0.0473
     15 C          60.1307   80.4870   14.1223 C.3     1  UNL1        0.0001
     16 C          61.4269   81.2380   14.1988 C.3     1  UNL1        0.0038
@<TRIPOS>BOND
     1    15    16    1
     2    16    14    1
     3    14    13    1
     4    13    12    1
     5    12     1    1
     6     1     2   ar
     7     2     3   ar
     8     3     4   ar
     9     4     5   ar
    10     5     6   ar
    11     6     7    1
    12     7     8   ar
    13     8     9   ar
    14     9    10   ar
    15    10    11   ar
    16     6     1   ar
    17    11     7   ar
@<TRIPOS>MOLECULE
*****
 16 17 0 0 0
SMALL
GASTEIGER

@<TRIPOS>ATOM
      1 C          62.7720   84.1678   12.5843 C.ar    1  UNL1        0.1415
      2 C          62.9006   83.2165   11.4317 C.ar    1  UNL1        0.0370
      3 C          62.9946   81.7409   11.6840 C.ar    1  UNL1        0.0031
      4 C          62.9601   81.2165   13.0889 C.ar    1  UNL1        0.0003
      5 C          62.8315   82.1678   14.2415 C.ar    1  UNL1        0.0062
      6 C          62.7375   83.6434   13.9892 C.ar    1  UNL1        0.0711
      7 C          62.6090   84.5947   15.1419 C.ar    1  UNL1        0.1799
      8 C          63.7417   85.2523   15.8729 C.ar    1  UNL1        0.0643
      9 C          63.1580   86.1194   16.9487 C.ar    1  UNL1        0.1438
     10 N          61.6643   85.9976   16.8826 N.ar    1  UNL1       -0.0753
     11 O          61.3251   85.0553   15.7660 O.2     1  UNL1       -0.3532
     12 O          62.6780   85.6434   12.3320 O.3     1  UNL1       -0.4754
     13 C          61.6310   86.1800   11.4016 C.3     1  UNL1        0.2054
     14 C          62.0361   86.8356   10.1147 C.3     1  UNL1        0.0473
     15 C          63.0420   85.2608    8.3096 C.3     1  UNL1        0.0001
     16 C          61.9017   86.0916    8.8191 C.3     1  UNL1        0.0038
@<TRIPOS>BOND
     1    15    16    1
     2    16    14    1
     3    14    13    1
     4    13    12    1
     5    12     1    1
     6     1     2   ar
     7     2     3   ar
     8     3     4   ar
     9     4     5   ar
    10     5     6   ar
    11     6     7    1
    12     7     8   ar
    13     8     9   ar
    14     9    10   ar
    15    10    11   ar
    16     6     1   ar
    17    11     7   ar
@<TRIPOS>MOLECULE
*****
 16 17 0 0 0
SMALL
GASTEIGER

@<TRIPOS>ATOM
      1 C          62.7479   84.9900   11.7429 C.ar    1  UNL1        0.1415
      2 C          62.9889   84.4899   10.3495 C.ar    1  UNL1        0.0370
      3 C          63.8772   83.3029   10.1218 C.ar    1  UNL1        0.0031
      4 C          64.5246   82.6159   11.2876 C.ar    1  UNL1        0.0003
      5 C          64.2836   83.1161   12.6811 C.ar    1  UNL1        0.0062
      6 C          63.3953   84.3031   12.9087 C.ar    1  UNL1        0.0711
      7 C          63.1543   84.8033   14.3023 C.ar    1  UNL1        0.1799
      8 C          64.1295   85.5711   15.1444 C.ar    1  UNL1        0.0643
      9 C          63.4737   85.8657   16.4609 C.ar    1  UNL1        0.1438
     10 N          62.0931   85.2799   16.4324 N.ar    1  UNL1       -0.0753
     11 O          61.8957   84.6233   15.0982 O.2     1  UNL1       -0.3532
     12 O          61.8596   86.1771   11.9706 O.3     1  UNL1       -0.4754
     13 C          61.7040   87.2140   10.8980 C.3     1  UNL1        0.2054
     14 C          60.4468   87.2656   10.0815 C.3     1  UNL1        0.0473
     15 C          59.2153   86.7616    7.8500 C.3     1  UNL1        0.0001
     16 C          60.3651   86.5199    8.7825 C.3     1  UNL1        0.0038
@<TRIPOS>BOND
     1    15    16    1
     2    16    14    1
     3    14    13    1
     4    13    12    1
     5    12     1    1
     6     1     2   ar
     7     2     3   ar
     8     3     4   ar
     9     4     5   ar
    10     5     6   ar
    11     6     7    1
    12     7     8   ar
    13     8     9   ar
    14     9    10   ar
    15    10    11   ar
    16     6     1   ar
    17    11     7   ar
@<TRIPOS>MOLECULE
*****
 16 17 0 0 0
SMALL
GASTEIGER

@<TRIPOS>ATOM
      1 C          62.7023   85.0685   11.7526 C.ar    1  UNL1        0.1415
      2 C          62.9256   84.5927   10.3477 C.ar    1  UNL1        0.0370
      3 C          63.8237   83.4200   10.0869 C.ar    1  UNL1        0.0031
      4 C          64.4985   82.7230   11.2309 C.ar    1  UNL1        0.0003
      5 C          64.2753   83.1988   12.6357 C.ar    1  UNL1        0.0062
      6 C          63.3771   84.3716   12.8966 C.ar    1  UNL1        0.0711
      7 C          63.1539   84.8473   14.3016 C.ar    1  UNL1        0.1799
      8 C          64.1370   85.6074   15.1418 C.ar    1  UNL1        0.0643
      9 C          63.4990   85.8763   16.4724 C.ar    1  UNL1        0.1438
     10 N          62.1216   85.2825   16.4546 N.ar    1  UNL1       -0.0753
     11 O          61.9083   84.6466   15.1130 O.2     1  UNL1       -0.3532
     12 O          61.8042   86.2413   12.0135 O.3     1  UNL1       -0.4754
     13 C          61.2185   87.0076   10.8647 C.3     1  UNL1        0.2054
     14 C          62.0129   88.0967   10.2069 C.3     1  UNL1        0.0473
     15 C          62.9063   90.5337   10.3199 C.3     1  UNL1        0.0001
     16 C          62.4855   89.2710   11.0117 C.3     1  UNL1        0.0038
@<TRIPOS>BOND
     1    15    16    1
     2    16    14    1
     3    14    13    1
     4    13    12    1
     5    12     1    1
     6     1     2   ar
     7     2     3   ar
     8     3     4   ar
     9     4     5   ar
    10     5     6   ar
    11     6     7    1
    12     7     8   ar
    13     8     9   ar
    14     9    10   ar
    15    10    11   ar
    16     6     1   ar
    17    11     7   ar
@<TRIPOS>MOLECULE
*****
 16 17 0 0 0
SMALL
GASTEIGER

@<TRIPOS>ATOM
      1 C          62.6189   85.1745   11.5170 C.ar    1  UNL1        0.1415
      2 C          63.2502   83.9151   11.0017 C.ar    1  UNL1        0.0370
      3 C          63.5352   83.7641    9.5367 C.ar    1  UNL1        0.0031
      4 C          63.1889   84.8724    8.5872 C.ar    1  UNL1        0.0003
      5 C          62.5577   86.1317    9.1025 C.ar    1  UNL1        0.0062
      6 C          62.2727   86.2827   10.5674 C.ar    1  UNL1        0.0711
      7 C          61.6414   87.5422   11.0827 C.ar    1  UNL1        0.1799
      8 C          62.3046   88.8839   11.1826 C.ar    1  UNL1        0.0643
      9 C          61.3092   89.8518   11.7502 C.ar    1  UNL1        0.1438
     10 N          60.0307   89.1083   12.0012 N.ar    1  UNL1       -0.0753
     11 O          60.2361   87.6809   11.5887 O.2     1  UNL1       -0.3532
     12 O          62.3340   85.3255   12.9819 O.3     1  UNL1       -0.4754
     13 C          63.0253   84.4399   13.9757 C.3     1  UNL1        0.2054
     14 C          62.2791   83.3087   14.6188 C.3     1  UNL1        0.0473
     15 C          61.1875   81.0152   14.0725 C.3     1  UNL1        0.0001
     16 C          62.3805   81.9242   14.0504 C.3     1  UNL1        0.0038
@<TRIPOS>BOND
     1    15    16    1
     2    16    14    1
     3    14    13    1
     4    13    12    1
     5    12     1    1
     6     1     2   ar
     7     2     3   ar
     8     3     4   ar
     9     4     5   ar
    10     5     6   ar
    11     6     7    1
    12     7     8   ar
    13     8     9   ar
    14     9    10   ar
    15    10    11   ar
    16     6     1   ar
    17    11     7   ar
@<TRIPOS>MOLECULE
*****
 16 17 0 0 0
SMALL
GASTEIGER

@<TRIPOS>ATOM
      1 C          63.7615   90.4290   13.2963 C.ar    1  UNL1        0.1415
      2 C          64.8858   91.3849   13.5652 C.ar    1  UNL1        0.0370
      3 C          65.4094   92.2562   12.4622 C.ar    1  UNL1        0.0031
      4 C          64.8088   92.1716   11.0903 C.ar    1  UNL1        0.0003
      5 C          63.6846   91.2157   10.8214 C.ar    1  UNL1        0.0062
      6 C          63.1610   90.3444   11.9245 C.ar    1  UNL1        0.0711
      7 C          62.0367   89.3885   11.6555 C.ar    1  UNL1        0.1799
      8 C          62.1009   88.1779   10.7723 C.ar    1  UNL1        0.0643
      9 C          60.7548   87.5166   10.7935 C.ar    1  UNL1        0.1438
     10 N          59.8584   88.3185   11.6900 N.ar    1  UNL1       -0.0753
     11 O          60.6507   89.4754   12.2227 O.2     1  UNL1       -0.3532
     12 O          63.2379   89.5577   14.3994 O.3     1  UNL1       -0.4754
     13 C          63.4870   89.9293   15.8311 C.3     1  UNL1        0.2054
     14 C          63.0769   88.9951   16.9307 C.3     1  UNL1        0.0473
     15 C          62.6198   86.5738   17.7543 C.3     1  UNL1        0.0001
     16 C          63.2085   87.5126   16.7433 C.3     1  UNL1        0.0038
@<TRIPOS>BOND
     1    15    16    1
     2    16    14    1
     3    14    13    1
     4    13    12    1
     5    12     1    1
     6     1     2   ar
     7     2     3   ar
     8     3     4   ar
     9     4     5   ar
    10     5     6   ar
    11     6     7    1
    12     7     8   ar
    13     8     9   ar
    14     9    10   ar
    15    10    11   ar
    16     6     1   ar
    17    11     7   ar
@<TRIPOS>MOLECULE
*****
 16 17 0 0 0
SMALL
GASTEIGER

@<TRIPOS>ATOM
      1 C          60.6530   87.1801   10.5310 C.ar    1  UNL1        0.1415
      2 C          59.8909   87.3062    9.2452 C.ar    1  UNL1        0.0370
      3 C          60.3833   86.6116    8.0103 C.ar    1  UNL1        0.0031
      4 C          61.6379   85.7909    8.0611 C.ar    1  UNL1        0.0003
      5 C          62.3999   85.6648    9.3469 C.ar    1  UNL1        0.0062
      6 C          61.9075   86.3595   10.5818 C.ar    1  UNL1        0.0711
      7 C          62.6697   86.2333   11.8677 C.ar    1  UNL1        0.1799
      8 C          63.0067   84.9520   12.5708 C.ar    1  UNL1        0.0643
      9 C          63.7739   85.2932   13.8138 C.ar    1  UNL1        0.1438
     10 N          63.9111   86.7855   13.8788 N.ar    1  UNL1       -0.0753
     11 O          63.2286   87.3666   12.6761 O.2     1  UNL1       -0.3532
     12 O          60.1606   87.8748   11.7659 O.3     1  UNL1       -0.4754
     13 C          59.5687   89.2495   11.6676 C.3     1  UNL1        0.2054
     14 C          60.3808   90.3771   11.1028 C.3     1  UNL1        0.0473
     15 C          62.8320   90.1220   10.2801 C.3     1  UNL1        0.0001
     16 C          61.8550   90.4474   11.3709 C.3     1  UNL1        0.0038
@<TRIPOS>BOND
     1    15    16    1
     2    16    14    1
     3    14    13    1
     4    13    12    1
     5    12     1    1
     6     1     2   ar
     7     2     3   ar
     8     3     4   ar
     9     4     5   ar
    10     5     6   ar
    11     6     7    1
    12     7     8   ar
    13     8     9   ar
    14     9    10   ar
    15    10    11   ar
    16     6     1   ar
    17    11     7   ar
@<TRIPOS>MOLECULE
*****
 16 17 0 0 0
SMALL
GASTEIGER

@<TRIPOS>ATOM
      1 C          62.6045   85.2691   11.4146 C.ar    1  UNL1        0.1415
      2 C          63.2752   84.0681   10.8165 C.ar    1  UNL1        0.0370
      3 C          63.5062   83.9975    9.3361 C.ar    1  UNL1        0.0031
      4 C          63.0664   85.1280    8.4537 C.ar    1  UNL1        0.0003
      5 C          62.3957   86.3290    9.0517 C.ar    1  UNL1        0.0062
      6 C          62.1648   86.3995   10.5322 C.ar    1  UNL1        0.0711
      7 C          61.4940   87.6006   11.1302 C.ar    1  UNL1        0.1799
      8 C          60.0756   88.0274   10.8938 C.ar    1  UNL1        0.0643
      9 C          59.8289   89.2763   11.6871 C.ar    1  UNL1        0.1438
     10 N          61.0950   89.6214   12.4138 N.ar    1  UNL1       -0.0753
     11 O          62.1240   88.5858   12.0697 O.2     1  UNL1       -0.3532
     12 O          62.3736   85.3397   12.8950 O.3     1  UNL1       -0.4754
     13 C          63.4783   84.9814   13.8443 C.3     1  UNL1        0.2054
     14 C          63.1823   84.7930   15.3027 C.3     1  UNL1        0.0473
     15 C          62.7375   86.3300   17.3496 C.3     1  UNL1        0.0001
     16 C          63.6713   85.7980   16.3032 C.3     1  UNL1        0.0038
@<TRIPOS>BOND
     1    15    16    1
     2    16    14    1
     3    14    13    1
     4    13    12    1
     5    12     1    1
     6     1     2   ar
     7     2     3   ar
     8     3     4   ar
     9     4     5   ar
    10     5     6   ar
    11     6     7    1
    12     7     8   ar
    13     8     9   ar
    14     9    10   ar
    15    10    11   ar
    16     6     1   ar
    17    11     7   ar
@<TRIPOS>MOLECULE
*****
 16 17 0 0 0
SMALL
GASTEIGER

@<TRIPOS>ATOM
      1 C          63.4597   82.6718   12.2430 C.ar    1  UNL1        0.1415
      2 C          63.0652   81.2391   12.0386 C.ar    1  UNL1        0.0370
      3 C          62.2497   80.5300   13.0789 C.ar    1  UNL1        0.0031
      4 C          61.8286   81.2536   14.3235 C.ar    1  UNL1        0.0003
      5 C          62.2232   82.6863   14.5279 C.ar    1  UNL1        0.0062
      6 C          63.0387   83.3953   13.4876 C.ar    1  UNL1        0.0711
      7 C          63.4332   84.8281   13.6920 C.ar    1  UNL1        0.1799
      8 C          64.3192   85.3515   14.7833 C.ar    1  UNL1        0.0643
      9 C          64.4445   86.8358   14.6068 C.ar    1  UNL1        0.1438
     10 N          63.6359   87.2297   13.4063 N.ar    1  UNL1       -0.0753
     11 O          63.0109   85.9889   12.8410 O.2     1  UNL1       -0.3532
     12 O          64.2753   83.3808   11.2028 O.3     1  UNL1       -0.4754
     13 C          63.7545   83.5117    9.8022 C.3     1  UNL1        0.2054
     14 C          63.4781   84.8699    9.2286 C.3     1  UNL1        0.0473
     15 C          62.4023   84.8780    6.8637 C.3     1  UNL1        0.0001
     16 C          62.2846   85.0822    8.3451 C.3     1  UNL1        0.0038
@<TRIPOS>BOND
     1    15    16    1
     2    16    14    1
     3    14    13    1
     4    13    12    1
     5    12     1    1
     6     1     2   ar
     7     2     3   ar
     8     3     4   ar
     9     4     5   ar
    10     5     6   ar
    11     6     7    1
    12     7     8   ar
    13     8     9   ar
    14     9    10   ar
    15    10    11   ar
    16     6     1   ar
    17    11     7   ar
