@<TRIPOS>MOLECULE
*****
 45 49 0 0 0
SMALL
GASTEIGER

@<TRIPOS>ATOM
      1 C          60.6624   89.4464   10.8787 C.3     1  UNL1        0.1443
      2 O          59.9383   89.0967   12.1449 O.3     1  UNL1       -0.3813
      3 H          60.2762   89.6427   12.8720 H       1  UNL1        0.2105
      4 C          60.3227   88.7387    9.6005 C.3     1  UNL1        0.1041
      5 C          59.3532   89.0364    7.2086 C.2     1  UNL1        0.2527
      6 O          58.5263   87.7980    7.3896 O.2     1  UNL1       -0.2724
      7 N          60.2513   89.5068    8.3141 N.am    1  UNL1       -0.3012
      8 H          60.7940   90.3196    8.1952 H       1  UNL1        0.1495
      9 C          59.2818   89.8045    5.9221 C.3     1  UNL1        0.2269
     10 C          58.2248   91.8362    4.6953 C.3     1  UNL1        0.1748
     11 O          58.0927   90.6714    5.6312 O.3     1  UNL1       -0.3418
     12 C          60.0545   87.2630    9.6089 C.3     1  UNL1        0.0484
     13 C          61.1966   86.2934    9.6835 C.ar    1  UNL1       -0.0204
     14 C          61.9829   85.9643    8.4493 C.ar    1  UNL1       -0.0042
     15 C          63.1250   84.9948    8.5239 C.ar    1  UNL1       -0.0003
     16 C          63.4809   84.3544    9.8328 C.ar    1  UNL1       -0.0000
     17 C          62.6946   84.6835   11.0671 C.ar    1  UNL1       -0.0002
     18 C          61.5524   85.6530   10.9925 C.ar    1  UNL1       -0.0042
     19 C          63.0504   84.0431   12.3760 C.ar    1  UNL1        0.0031
     20 C          62.7564   82.5900   12.6044 C.ar    1  UNL1        0.0207
     21 C          63.1123   81.9496   13.9133 C.ar    1  UNL1        0.0989
     22 N          63.7621   82.7623   14.9938 N.ar    1  UNL1       -0.2423
     23 C          64.0561   84.2153   14.7653 C.ar    1  UNL1        0.0989
     24 C          63.7002   84.8557   13.4564 C.ar    1  UNL1        0.0207
     25 C          61.7262   90.5039   10.8906 C.3     1  UNL1        0.1001
     26 N          63.1239   90.1570   11.3100 N.3     1  UNL1       -0.2928
     27 H          63.7488   90.5521   10.6073 H       1  UNL1        0.1236
     28 C          63.6384   90.6027   12.6467 C.3     1  UNL1        0.0849
     29 C          63.1565   89.9304   13.8980 C.3     1  UNL1        0.0604
     30 C          63.6709   90.3760   15.2347 C.3     1  UNL1        0.1363
     31 C          62.7133   89.2622   15.5389 C.3     1  UNL1        0.0402
     32 C          62.9894   89.4252   17.0043 C.3     1  UNL1        0.0072
     33 C          63.9470   90.5390   16.7001 C.3     1  UNL1        0.0402
     34 O          64.6673   91.4940   15.3200 O.3     1  UNL1       -0.4676
     35 C          65.1492   92.1664   14.0687 C.ar    1  UNL1        0.2216
     36 N          66.1456   93.2844   14.1542 N.ar    1  UNL1       -0.2107
     37 C          66.6275   93.9568   12.9029 C.ar    1  UNL1        0.0977
     38 C          66.1130   93.5110   11.5662 C.ar    1  UNL1       -0.0031
     39 C          65.1167   92.3930   11.4808 C.ar    1  UNL1       -0.0011
     40 C          64.6348   91.7207   12.7321 C.ar    1  UNL1        0.0449
     41 C          66.5949   94.1834   10.3149 C.3     1  UNL1        0.0279
     42 C          67.6029   93.5017    9.4377 C.3     1  UNL1        0.0041
     43 C          67.4882   94.6159    8.4401 C.3     1  UNL1        0.0003
     44 C          67.7176   92.3874   10.4355 C.3     1  UNL1        0.0003
     45 C          68.6109   92.8200    8.5606 C.3     1  UNL1        0.0003
@<TRIPOS>BOND
     1    10    11    1
     2    11     9    1
     3     9     5    1
     4     5     6    2
     5     5     7   am
     6     7     4    1
     7     4    12    1
     8    12    13    1
     9    13    14   ar
    10    14    15   ar
    11    15    16   ar
    12    16    17   ar
    13    17    19    1
    14    19    20   ar
    15    20    21   ar
    16    21    22   ar
    17    22    23   ar
    18    23    24   ar
    19    17    18   ar
    20     4     1    1
    21     1     2    1
    22     1    25    1
    23    25    26    1
    24    28    26    1
    25    28    29    1
    26    29    30    1
    27    30    31    1
    28    31    32    1
    29    32    33    1
    30    30    34    1
    31    34    35    1
    32    35    36   ar
    33    36    37   ar
    34    37    38   ar
    35    38    41    1
    36    41    42    1
    37    42    43    1
    38    42    44    1
    39    42    45    1
    40    38    39   ar
    41    39    40   ar
    42    18    13   ar
    43    40    28    1
    44    24    19   ar
    45    33    30    1
    46    40    35   ar
    47     7     8    1
    48     2     3    1
    49    26    27    1
@<TRIPOS>MOLECULE
*****
 45 49 0 0 0
SMALL
GASTEIGER

@<TRIPOS>ATOM
      1 C          60.7836   89.6357   10.9705 C.3     1  UNL1        0.1443
      2 O          60.1899   89.2774   12.3005 O.3     1  UNL1       -0.3813
      3 H          60.5308   89.8802   12.9797 H       1  UNL1        0.2105
      4 C          60.4144   88.8490    9.7479 C.3     1  UNL1        0.1041
      5 C          59.4313   88.9999    7.3478 C.2     1  UNL1        0.2527
      6 O          58.5803   87.7951    7.6206 O.2     1  UNL1       -0.2724
      7 N          60.3483   89.5268    8.4114 N.am    1  UNL1       -0.3012
      8 H          60.9068   90.3176    8.2324 H       1  UNL1        0.1495
      9 C          59.3651   89.6778    6.0113 C.3     1  UNL1        0.2269
     10 C          58.5385   91.8115    4.7808 C.3     1  UNL1        0.1748
     11 O          58.2839   90.6790    5.7309 O.3     1  UNL1       -0.3418
     12 C          60.1114   87.3844    9.8618 C.3     1  UNL1        0.0484
     13 C          61.2193   86.3788    9.7557 C.ar    1  UNL1       -0.0204
     14 C          61.9902   86.2443    8.4760 C.ar    1  UNL1       -0.0042
     15 C          63.0981   85.2387    8.3700 C.ar    1  UNL1       -0.0003
     16 C          63.4352   84.3675    9.5436 C.ar    1  UNL1       -0.0000
     17 C          62.6643   84.5020   10.8234 C.ar    1  UNL1       -0.0002
     18 C          61.5564   85.5076   10.9295 C.ar    1  UNL1       -0.0042
     19 C          63.0014   83.6308   11.9970 C.ar    1  UNL1        0.0031
     20 C          63.7323   84.2071   13.1733 C.ar    1  UNL1        0.0207
     21 C          64.0694   83.3359   14.3470 C.ar    1  UNL1        0.0989
     22 N          63.6756   81.8885   14.3443 N.ar    1  UNL1       -0.2423
     23 C          62.9447   81.3123   13.1679 C.ar    1  UNL1        0.0989
     24 C          62.6076   82.1835   11.9943 C.ar    1  UNL1        0.0207
     25 C          61.7465   90.7809   10.8630 C.3     1  UNL1        0.1001
     26 N          63.2239   90.5214   10.8664 N.3     1  UNL1       -0.2928
     27 H          63.5096   90.4333    9.8912 H       1  UNL1        0.1236
     28 C          64.1572   91.5078   11.5036 C.3     1  UNL1        0.0849
     29 C          64.8679   92.5224   10.6577 C.3     1  UNL1        0.0604
     30 C          65.8011   93.5087   11.2948 C.3     1  UNL1        0.1363
     31 C          65.8317   93.8350    9.8310 C.3     1  UNL1        0.0402
     32 C          66.8062   94.9436   10.0985 C.3     1  UNL1        0.0072
     33 C          66.7756   94.6174   11.5623 C.3     1  UNL1        0.0402
     34 O          66.0238   93.4805   12.7779 O.3     1  UNL1       -0.4676
     35 C          65.3132   92.4659   13.6238 C.ar    1  UNL1        0.2216
     36 N          65.5358   92.4377   15.1070 N.ar    1  UNL1       -0.2107
     37 C          64.8252   91.4231   15.9529 C.ar    1  UNL1        0.0977
     38 C          63.8919   90.4367   15.3157 C.ar    1  UNL1       -0.0031
     39 C          63.6692   90.4650   13.8326 C.ar    1  UNL1       -0.0011
     40 C          64.3799   91.4795   12.9867 C.ar    1  UNL1        0.0449
     41 C          63.1812   89.4221   16.1616 C.3     1  UNL1        0.0279
     42 C          63.5710   87.9757   16.0841 C.3     1  UNL1        0.0041
     43 C          64.2995   88.2409   14.8000 C.3     1  UNL1        0.0003
     44 C          62.8424   87.7105   17.3682 C.3     1  UNL1        0.0003
     45 C          63.9608   86.5293   16.0066 C.3     1  UNL1        0.0003
@<TRIPOS>BOND
     1    10    11    1
     2    11     9    1
     3     9     5    1
     4     5     6    2
     5     5     7   am
     6     7     4    1
     7     4    12    1
     8    12    13    1
     9    13    14   ar
    10    14    15   ar
    11    15    16   ar
    12    16    17   ar
    13    17    19    1
    14    19    20   ar
    15    20    21   ar
    16    21    22   ar
    17    22    23   ar
    18    23    24   ar
    19    17    18   ar
    20     4     1    1
    21     1     2    1
    22     1    25    1
    23    25    26    1
    24    28    26    1
    25    28    29    1
    26    29    30    1
    27    30    31    1
    28    31    32    1
    29    32    33    1
    30    30    34    1
    31    34    35    1
    32    35    36   ar
    33    36    37   ar
    34    37    38   ar
    35    38    41    1
    36    41    42    1
    37    42    43    1
    38    42    44    1
    39    42    45    1
    40    38    39   ar
    41    39    40   ar
    42    18    13   ar
    43    40    28    1
    44    24    19   ar
    45    33    30    1
    46    40    35   ar
    47     7     8    1
    48     2     3    1
    49    26    27    1
@<TRIPOS>MOLECULE
*****
 45 49 0 0 0
SMALL
GASTEIGER

@<TRIPOS>ATOM
      1 C          60.0264   89.1157   10.7372 C.3     1  UNL1        0.1443
      2 O          59.3667   90.1587   11.5899 O.3     1  UNL1       -0.3813
      3 H          58.8230   89.7263   12.2669 H       1  UNL1        0.2105
      4 C          60.9266   89.5277    9.6103 C.3     1  UNL1        0.1041
      5 C          59.4641   89.2453    7.4817 C.2     1  UNL1        0.2527
      6 O          59.1732   87.8258    7.8698 O.2     1  UNL1       -0.2724
      7 N          60.3408   90.0962    8.3519 N.am    1  UNL1       -0.3012
      8 H          60.5317   91.0278    8.0971 H       1  UNL1        0.1495
      9 C          58.8783   89.8138    6.2232 C.3     1  UNL1        0.2269
     10 C          59.0492   91.9454    4.7477 C.3     1  UNL1        0.1748
     11 O          59.6916   90.7409    5.3694 O.3     1  UNL1       -0.3418
     12 C          62.4126   89.3712    9.7419 C.3     1  UNL1        0.0484
     13 C          63.1749   90.2314   10.7056 C.ar    1  UNL1       -0.0204
     14 C          62.9284   90.1060   12.1799 C.ar    1  UNL1       -0.0042
     15 C          63.6907   90.9662   13.1437 C.ar    1  UNL1       -0.0003
     16 C          64.6996   91.9519   12.6332 C.ar    1  UNL1       -0.0000
     17 C          64.9461   92.0774   11.1589 C.ar    1  UNL1       -0.0002
     18 C          64.1838   91.2172   10.1951 C.ar    1  UNL1       -0.0042
     19 C          65.9550   93.0630   10.6484 C.ar    1  UNL1        0.0031
     20 C          67.1814   92.5788    9.9333 C.ar    1  UNL1        0.0207
     21 C          68.1903   93.5644    9.4228 C.ar    1  UNL1        0.0989
     22 N          67.9727   95.0345    9.6275 N.ar    1  UNL1       -0.2423
     23 C          66.7463   95.5187   10.3426 C.ar    1  UNL1        0.0989
     24 C          65.7374   94.5330   10.8531 C.ar    1  UNL1        0.0207
     25 C          59.7859   87.6607   11.0115 C.3     1  UNL1        0.1001
     26 N          60.8801   86.8166   11.5948 N.3     1  UNL1       -0.2928
     27 H          60.4500   86.2300   12.3099 H       1  UNL1        0.1236
     28 C          61.6775   85.9054   10.7094 C.3     1  UNL1        0.0849
     29 C          61.4411   85.9033    9.2281 C.3     1  UNL1        0.0604
     30 C          62.2384   84.9922    8.3426 C.3     1  UNL1        0.1363
     31 C          61.3237   85.7339    7.4135 C.3     1  UNL1        0.0402
     32 C          61.9041   84.9893    6.2477 C.3     1  UNL1        0.0072
     33 C          62.8188   84.2476    7.1769 C.3     1  UNL1        0.0402
     34 O          63.2721   84.0831    8.9384 O.3     1  UNL1       -0.4676
     35 C          63.5085   84.0852   10.4197 C.ar    1  UNL1        0.2216
     36 N          64.5422   83.1761   11.0155 N.ar    1  UNL1       -0.2107
     37 C          64.7786   83.1781   12.4967 C.ar    1  UNL1        0.0977
     38 C          63.9813   84.0893   13.3822 C.ar    1  UNL1       -0.0031
     39 C          62.9476   84.9984   12.7864 C.ar    1  UNL1       -0.0011
     40 C          62.7112   84.9963   11.3051 C.ar    1  UNL1        0.0449
     41 C          64.2176   84.0914   14.8634 C.3     1  UNL1        0.0279
     42 C          63.7956   85.2709   15.6886 C.3     1  UNL1        0.0041
     43 C          65.0064   86.0266   15.2275 C.3     1  UNL1        0.0003
     44 C          62.5848   84.5150   16.1498 C.3     1  UNL1        0.0003
     45 C          63.3737   86.4503   16.5138 C.3     1  UNL1        0.0003
@<TRIPOS>BOND
     1    10    11    1
     2    11     9    1
     3     9     5    1
     4     5     6    2
     5     5     7   am
     6     7     4    1
     7     4    12    1
     8    12    13    1
     9    13    14   ar
    10    14    15   ar
    11    15    16   ar
    12    16    17   ar
    13    17    19    1
    14    19    20   ar
    15    20    21   ar
    16    21    22   ar
    17    22    23   ar
    18    23    24   ar
    19    17    18   ar
    20     4     1    1
    21     1     2    1
    22     1    25    1
    23    25    26    1
    24    28    26    1
    25    28    29    1
    26    29    30    1
    27    30    31    1
    28    31    32    1
    29    32    33    1
    30    30    34    1
    31    34    35    1
    32    35    36   ar
    33    36    37   ar
    34    37    38   ar
    35    38    41    1
    36    41    42    1
    37    42    43    1
    38    42    44    1
    39    42    45    1
    40    38    39   ar
    41    39    40   ar
    42    18    13   ar
    43    40    28    1
    44    24    19   ar
    45    33    30    1
    46    40    35   ar
    47     7     8    1
    48     2     3    1
    49    26    27    1
@<TRIPOS>MOLECULE
*****
 45 49 0 0 0
SMALL
GASTEIGER

@<TRIPOS>ATOM
      1 C          60.6666   89.5967   11.7898 C.3     1  UNL1        0.1443
      2 O          59.4335   90.4096   12.0517 O.3     1  UNL1       -0.3813
      3 H          58.6623   89.9578   11.6748 H       1  UNL1        0.2105
      4 C          62.0010   90.0808   12.2744 C.3     1  UNL1        0.1041
      5 C          63.1166   89.1941   14.4468 C.2     1  UNL1        0.2527
      6 O          63.7078   88.0508   13.6765 O.2     1  UNL1       -0.2724
      7 N          62.2632   90.2091   13.7457 N.am    1  UNL1       -0.3012
      8 H          61.8752   90.9595   14.2513 H       1  UNL1        0.1495
      9 C          63.3788   89.3224   15.9181 C.3     1  UNL1        0.2269
     10 C          64.1153   91.7302   16.5585 C.3     1  UNL1        0.1748
     11 O          63.1071   90.6212   16.6179 O.3     1  UNL1       -0.3418
     12 C          63.0733   90.4366   11.2877 C.3     1  UNL1        0.0484
     13 C          64.1794   91.3684   11.6856 C.ar    1  UNL1       -0.0204
     14 C          64.8265   91.2327   13.0320 C.ar    1  UNL1       -0.0042
     15 C          65.9326   92.1644   13.4298 C.ar    1  UNL1       -0.0003
     16 C          66.3917   93.2319   12.4813 C.ar    1  UNL1       -0.0000
     17 C          65.7446   93.3677   11.1348 C.ar    1  UNL1       -0.0002
     18 C          64.6384   92.4359   10.7370 C.ar    1  UNL1       -0.0042
     19 C          66.2036   94.4351   10.1863 C.ar    1  UNL1        0.0031
     20 C          67.3161   94.1526    9.2206 C.ar    1  UNL1        0.0207
     21 C          67.7751   95.2200    8.2721 C.ar    1  UNL1        0.0989
     22 N          67.1217   96.5702    8.2893 N.ar    1  UNL1       -0.2423
     23 C          66.0092   96.8527    9.2549 C.ar    1  UNL1        0.0989
     24 C          65.5502   95.7852   10.2035 C.ar    1  UNL1        0.0207
     25 C          60.5652   88.2995   11.0433 C.3     1  UNL1        0.1001
     26 N          61.2135   87.0643   11.5945 N.3     1  UNL1       -0.2928
     27 H          60.4921   86.5567   12.1066 H       1  UNL1        0.1236
     28 C          61.8604   86.0790   10.6667 C.3     1  UNL1        0.0849
     29 C          61.5245   86.0932    9.2049 C.3     1  UNL1        0.0604
     30 C          62.1713   85.1079    8.2771 C.3     1  UNL1        0.1363
     31 C          61.2684   85.9282    7.4041 C.3     1  UNL1        0.0402
     32 C          61.6962   85.1279    6.2097 C.3     1  UNL1        0.0072
     33 C          62.5991   84.3077    7.0826 C.3     1  UNL1        0.0402
     34 O          63.1541   84.1085    8.8111 O.3     1  UNL1       -0.4676
     35 C          63.4901   84.0944   10.2730 C.ar    1  UNL1        0.2216
     36 N          64.4729   83.0949   10.8070 N.ar    1  UNL1       -0.2107
     37 C          64.8089   83.0807   12.2688 C.ar    1  UNL1        0.0977
     38 C          64.1620   84.0660   13.1966 C.ar    1  UNL1       -0.0031
     39 C          63.1792   85.0654   12.6626 C.ar    1  UNL1       -0.0011
     40 C          62.8432   85.0796   11.2008 C.ar    1  UNL1        0.0449
     41 C          64.4979   84.0519   14.6585 C.3     1  UNL1        0.0279
     42 C          63.6667   84.8404   15.6267 C.3     1  UNL1        0.0041
     43 C          64.7335   85.8932   15.6851 C.3     1  UNL1        0.0003
     44 C          62.5999   83.7874   15.5683 C.3     1  UNL1        0.0003
     45 C          62.8356   85.6288   16.5949 C.3     1  UNL1        0.0003
@<TRIPOS>BOND
     1    10    11    1
     2    11     9    1
     3     9     5    1
     4     5     6    2
     5     5     7   am
     6     7     4    1
     7     4    12    1
     8    12    13    1
     9    13    14   ar
    10    14    15   ar
    11    15    16   ar
    12    16    17   ar
    13    17    19    1
    14    19    20   ar
    15    20    21   ar
    16    21    22   ar
    17    22    23   ar
    18    23    24   ar
    19    17    18   ar
    20     4     1    1
    21     1     2    1
    22     1    25    1
    23    25    26    1
    24    28    26    1
    25    28    29    1
    26    29    30    1
    27    30    31    1
    28    31    32    1
    29    32    33    1
    30    30    34    1
    31    34    35    1
    32    35    36   ar
    33    36    37   ar
    34    37    38   ar
    35    38    41    1
    36    41    42    1
    37    42    43    1
    38    42    44    1
    39    42    45    1
    40    38    39   ar
    41    39    40   ar
    42    18    13   ar
    43    40    28    1
    44    24    19   ar
    45    33    30    1
    46    40    35   ar
    47     7     8    1
    48     2     3    1
    49    26    27    1
@<TRIPOS>MOLECULE
*****
 45 49 0 0 0
SMALL
GASTEIGER

@<TRIPOS>ATOM
      1 C          60.4499   89.4244   11.7991 C.3     1  UNL1        0.1443
      2 O          59.2974   90.3651   11.9913 O.3     1  UNL1       -0.3813
      3 H          58.4912   89.9675   11.6268 H       1  UNL1        0.2105
      4 C          61.8184   89.8067   12.2796 C.3     1  UNL1        0.1041
      5 C          63.0974   89.3578   14.4960 C.2     1  UNL1        0.2527
      6 O          63.9197   88.3082   13.8089 O.2     1  UNL1       -0.2724
      7 N          62.0467   90.1071   13.7314 N.am    1  UNL1       -0.3012
      8 H          61.5070   90.7960   14.1823 H       1  UNL1        0.1495
      9 C          63.3257   89.6582   15.9478 C.3     1  UNL1        0.2269
     10 C          64.4763   91.9193   16.5079 C.3     1  UNL1        0.1748
     11 O          63.2406   91.0713   16.4437 O.3     1  UNL1       -0.3418
     12 C          62.9585   89.8887   11.3084 C.3     1  UNL1        0.0484
     13 C          63.9104   91.0466   11.3652 C.ar    1  UNL1       -0.0204
     14 C          63.9454   92.0443   10.2457 C.ar    1  UNL1       -0.0042
     15 C          64.8973   93.2022   10.3026 C.ar    1  UNL1       -0.0003
     16 C          65.8141   93.3624   11.4789 C.ar    1  UNL1       -0.0000
     17 C          65.7791   92.3647   12.5985 C.ar    1  UNL1       -0.0002
     18 C          64.8272   91.2068   12.5416 C.ar    1  UNL1       -0.0042
     19 C          66.6959   92.5248   13.7748 C.ar    1  UNL1        0.0031
     20 C          67.3507   91.3210   14.3847 C.ar    1  UNL1        0.0207
     21 C          68.2675   91.4812   15.5610 C.ar    1  UNL1        0.0989
     22 N          68.5295   92.8452   16.1275 N.ar    1  UNL1       -0.2423
     23 C          67.8746   94.0490   15.5176 C.ar    1  UNL1        0.0989
     24 C          66.9578   93.8888   14.3412 C.ar    1  UNL1        0.0207
     25 C          60.2337   88.1012   11.1262 C.3     1  UNL1        0.1001
     26 N          60.9097   86.8713   11.6556 N.3     1  UNL1       -0.2928
     27 H          60.1853   86.3030   12.0945 H       1  UNL1        0.1236
     28 C          61.6625   85.9690   10.7232 C.3     1  UNL1        0.0849
     29 C          61.4097   86.0375    9.2462 C.3     1  UNL1        0.0604
     30 C          62.1624   85.1353    8.3139 C.3     1  UNL1        0.1363
     31 C          61.2658   85.9484    7.4278 C.3     1  UNL1        0.0402
     32 C          61.8049   85.2322    6.2251 C.3     1  UNL1        0.0072
     33 C          62.7015   84.4190    7.1111 C.3     1  UNL1        0.0402
     34 O          63.1679   84.1646    8.8584 O.3     1  UNL1       -0.4676
     35 C          63.4207   84.0961   10.3354 C.ar    1  UNL1        0.2216
     36 N          64.4263   83.1253   10.8800 N.ar    1  UNL1       -0.2107
     37 C          64.6791   83.0568   12.3569 C.ar    1  UNL1        0.0977
     38 C          63.9263   83.9591   13.2893 C.ar    1  UNL1       -0.0031
     39 C          62.9208   84.9298   12.7447 C.ar    1  UNL1       -0.0011
     40 C          62.6680   84.9983   11.2678 C.ar    1  UNL1        0.0449
     41 C          64.1791   83.8906   14.7663 C.3     1  UNL1        0.0279
     42 C          63.8221   85.0542   15.6430 C.3     1  UNL1        0.0041
     43 C          65.0892   85.7476   15.2385 C.3     1  UNL1        0.0003
     44 C          62.5550   84.3608   16.0475 C.3     1  UNL1        0.0003
     45 C          63.4652   86.2178   16.5197 C.3     1  UNL1        0.0003
@<TRIPOS>BOND
     1    10    11    1
     2    11     9    1
     3     9     5    1
     4     5     6    2
     5     5     7   am
     6     7     4    1
     7     4    12    1
     8    12    13    1
     9    13    14   ar
    10    14    15   ar
    11    15    16   ar
    12    16    17   ar
    13    17    19    1
    14    19    20   ar
    15    20    21   ar
    16    21    22   ar
    17    22    23   ar
    18    23    24   ar
    19    17    18   ar
    20     4     1    1
    21     1     2    1
    22     1    25    1
    23    25    26    1
    24    28    26    1
    25    28    29    1
    26    29    30    1
    27    30    31    1
    28    31    32    1
    29    32    33    1
    30    30    34    1
    31    34    35    1
    32    35    36   ar
    33    36    37   ar
    34    37    38   ar
    35    38    41    1
    36    41    42    1
    37    42    43    1
    38    42    44    1
    39    42    45    1
    40    38    39   ar
    41    39    40   ar
    42    18    13   ar
    43    40    28    1
    44    24    19   ar
    45    33    30    1
    46    40    35   ar
    47     7     8    1
    48     2     3    1
    49    26    27    1
@<TRIPOS>MOLECULE
*****
 45 49 0 0 0
SMALL
GASTEIGER

@<TRIPOS>ATOM
      1 C          63.4683   86.0927   15.5996 C.3     1  UNL1        0.1443
      2 O          62.8623   85.9123   16.9598 O.3     1  UNL1       -0.3813
      3 H          62.9965   86.7180   17.4830 H       1  UNL1        0.2105
      4 C          63.3952   84.9832   14.5928 C.3     1  UNL1        0.1041
      5 C          62.5177   82.5379   14.6175 C.2     1  UNL1        0.2527
      6 O          63.9289   82.0311   14.5745 O.2     1  UNL1       -0.2724
      7 N          62.2509   84.0139   14.6266 N.am    1  UNL1       -0.3012
      8 H          61.3247   84.3466   14.6548 H       1  UNL1        0.1495
      9 C          61.3734   81.5687   14.6513 C.3     1  UNL1        0.2269
     10 C          62.4691   80.1203   12.7934 C.3     1  UNL1        0.1748
     11 O          61.4622   80.2768   13.8941 O.3     1  UNL1       -0.3418
     12 C          64.4663   84.8430   13.5522 C.3     1  UNL1        0.0484
     13 C          64.1033   84.4529   12.1500 C.ar    1  UNL1       -0.0204
     14 C          64.7909   83.2933   11.4923 C.ar    1  UNL1       -0.0042
     15 C          64.4279   82.9032   10.0902 C.ar    1  UNL1       -0.0003
     16 C          63.3774   83.6726    9.3457 C.ar    1  UNL1       -0.0000
     17 C          62.6897   84.8323   10.0034 C.ar    1  UNL1       -0.0002
     18 C          63.0527   85.2224   11.4056 C.ar    1  UNL1       -0.0042
     19 C          61.6392   85.6017    9.2590 C.ar    1  UNL1        0.0031
     20 C          61.4408   85.3717    7.7900 C.ar    1  UNL1        0.0207
     21 C          60.3903   86.1412    7.0456 C.ar    1  UNL1        0.0989
     22 N          59.5380   87.1407    7.7701 N.ar    1  UNL1       -0.2423
     23 C          59.7364   87.3706    9.2390 C.ar    1  UNL1        0.0989
     24 C          60.7870   86.6011    9.9834 C.ar    1  UNL1        0.0207
     25 C          64.1475   87.3826   15.2462 C.3     1  UNL1        0.1001
     26 N          63.3825   88.6718   15.2982 N.3     1  UNL1       -0.2928
     27 H          63.8172   89.2431   16.0228 H       1  UNL1        0.1236
     28 C          63.2776   89.5317   14.0736 C.3     1  UNL1        0.0849
     29 C          62.0528   89.4615   13.2105 C.3     1  UNL1        0.0604
     30 C          61.9479   90.3213   11.9860 C.3     1  UNL1        0.1363
     31 C          60.6674   89.5409   12.0232 C.3     1  UNL1        0.0402
     32 C          60.2157   90.2221   10.7653 C.3     1  UNL1        0.0072
     33 C          61.4962   91.0025   10.7281 C.3     1  UNL1        0.0402
     34 O          63.0678   91.2514   11.6244 O.3     1  UNL1       -0.4676
     35 C          64.2927   91.3216   12.4875 C.ar    1  UNL1        0.2216
     36 N          65.4126   92.2517   12.1259 N.ar    1  UNL1       -0.2107
     37 C          66.6375   92.3219   12.9890 C.ar    1  UNL1        0.0977
     38 C          66.7423   91.4620   14.2136 C.ar    1  UNL1       -0.0031
     39 C          65.6224   90.5320   14.5751 C.ar    1  UNL1       -0.0011
     40 C          64.3976   90.4618   13.7121 C.ar    1  UNL1        0.0449
     41 C          67.9671   91.5322   15.0767 C.3     1  UNL1        0.0279
     42 C          68.4606   92.8594   15.5719 C.3     1  UNL1        0.0041
     43 C          67.2163   93.0150   16.3949 C.3     1  UNL1        0.0003
     44 C          69.7050   92.7038   14.7489 C.3     1  UNL1        0.0003
     45 C          68.9541   94.1865   16.0671 C.3     1  UNL1        0.0003
@<TRIPOS>BOND
     1    10    11    1
     2    11     9    1
     3     9     5    1
     4     5     6    2
     5     5     7   am
     6     7     4    1
     7     4    12    1
     8    12    13    1
     9    13    14   ar
    10    14    15   ar
    11    15    16   ar
    12    16    17   ar
    13    17    19    1
    14    19    20   ar
    15    20    21   ar
    16    21    22   ar
    17    22    23   ar
    18    23    24   ar
    19    17    18   ar
    20     4     1    1
    21     1     2    1
    22     1    25    1
    23    25    26    1
    24    28    26    1
    25    28    29    1
    26    29    30    1
    27    30    31    1
    28    31    32    1
    29    32    33    1
    30    30    34    1
    31    34    35    1
    32    35    36   ar
    33    36    37   ar
    34    37    38   ar
    35    38    41    1
    36    41    42    1
    37    42    43    1
    38    42    44    1
    39    42    45    1
    40    38    39   ar
    41    39    40   ar
    42    18    13   ar
    43    40    28    1
    44    24    19   ar
    45    33    30    1
    46    40    35   ar
    47     7     8    1
    48     2     3    1
    49    26    27    1
