@<TRIPOS>MOLECULE
*****
 40 43 0 0 0
SMALL
GASTEIGER

@<TRIPOS>ATOM
      1 C          60.8357   91.6948    4.0721 C.ar    1  UNL1        0.0507
      2 C          59.5475   92.4073    3.7838 C.ar    1  UNL1        0.0160
      3 C          59.4045   93.2212    2.5320 C.ar    1  UNL1        0.0160
      4 C          60.5496   93.3227    1.5684 C.ar    1  UNL1        0.0517
      5 C          61.8378   92.6103    1.8567 C.ar    1  UNL1        0.0160
      6 C          61.9808   91.7963    3.1086 C.ar    1  UNL1        0.0160
      7 N          60.4066   94.1365    0.3166 N.am    1  UNL1       -0.2680
      8 C          59.2654   93.8758   -0.6213 C.2     1  UNL1        0.3093
      9 O          58.2671   92.8011   -0.3073 O.2     1  UNL1       -0.2521
     10 N          59.1224   94.6897   -1.8731 N.am    1  UNL1       -0.2508
     11 H          61.0618   94.8419    0.1105 H       1  UNL1        0.1564
     12 H          59.7776   95.3950   -2.0792 H       1  UNL1        0.1579
     13 C          57.9811   94.4289   -2.8110 C.ar    1  UNL1        0.1771
     14 C          57.8388   93.2429   -3.7183 C.ar    1  UNL1        0.0734
     15 C          56.5515   93.3894   -4.4742 C.ar    1  UNL1        0.1549
     16 O          55.8982   94.6660   -4.0341 O.2     1  UNL1       -0.3565
     17 N          56.7818   95.3084   -3.0061 N.ar    1  UNL1       -0.0621
     18 C          56.0122   92.4281   -5.4916 C.3     1  UNL1        0.0539
     19 C          56.0090   91.3387   -4.4605 C.3     1  UNL1        0.0076
     20 C          56.0155   93.5176   -6.5227 C.3     1  UNL1        0.0076
     21 C          55.4730   91.4669   -6.5090 C.3     1  UNL1        0.0076
     22 C          59.7643   90.2916    5.9781 C.2     1  UNL1        0.2672
     23 O          58.4070   90.5161    5.3804 O.2     1  UNL1       -0.2682
     24 N          60.9787   90.8810    5.3239 N.am    1  UNL1       -0.2791
     25 H          61.8696   90.7336    5.7162 H       1  UNL1        0.1552
     26 C          60.1932   87.8498    9.7337 C.ar    1  UNL1        0.1575
     27 C          59.5221   87.2605    8.5284 C.ar    1  UNL1        0.0402
     28 C          59.3792   88.0745    7.2766 C.ar    1  UNL1        0.0269
     29 C          59.9073   89.4777    7.2300 C.ar    1  UNL1        0.1350
     30 N          60.5783   90.0669    8.4351 N.ar    1  UNL1       -0.2361
     31 C          60.7213   89.2530    9.6870 C.ar    1  UNL1        0.1357
     32 O          60.3361   87.0359   10.9855 O.3     1  UNL1       -0.4775
     33 N          63.5735   83.9251   11.2893 N.3     1  UNL1       -0.2724
     34 C          62.9282   84.4599   12.5333 C.3     1  UNL1        0.0758
     35 C          61.8490   85.4969   12.4320 C.3     1  UNL1        0.0609
     36 C          61.4152   85.9989   11.0868 C.3     1  UNL1        0.1688
     37 C          62.0605   85.4641    9.8428 C.3     1  UNL1        0.0609
     38 C          63.1397   84.4271    9.9441 C.3     1  UNL1        0.0758
     39 C          64.5406   81.7853   12.4011 C.3     1  UNL1        0.0188
     40 C          64.6526   82.8881   11.3906 C.3     1  UNL1        0.0721
@<TRIPOS>BOND
     1    39    40    1
     2    40    33    1
     3    33    34    1
     4    34    35    1
     5    35    36    1
     6    36    32    1
     7    32    26    1
     8    26    27   ar
     9    27    28   ar
    10    28    29   ar
    11    29    22    1
    12    22    23    2
    13    22    24   am
    14    24     1    1
    15     1     2   ar
    16     2     3   ar
    17     3     4   ar
    18     4     7    1
    19     7     8   am
    20     8     9    2
    21     8    10   am
    22    10    13    1
    23    13    14   ar
    24    14    15   ar
    25    15    18    1
    26    18    19    1
    27    18    20    1
    28    18    21    1
    29    15    16   ar
    30    16    17   ar
    31     4     5   ar
    32     5     6   ar
    33    29    30   ar
    34    30    31   ar
    35    36    37    1
    36    37    38    1
    37    38    33    1
    38    31    26   ar
    39     6     1   ar
    40    17    13   ar
    41    24    25    1
    42     7    11    1
    43    10    12    1
@<TRIPOS>MOLECULE
*****
 40 43 0 0 0
SMALL
GASTEIGER

@<TRIPOS>ATOM
      1 C          59.6455   92.0458    3.9943 C.ar    1  UNL1        0.0507
      2 C          60.7066   91.1454    4.5541 C.ar    1  UNL1        0.0160
      3 C          60.3563   90.1398    5.6105 C.ar    1  UNL1        0.0160
      4 C          58.9448   90.0345    6.1071 C.ar    1  UNL1        0.0517
      5 C          57.8837   90.9348    5.5474 C.ar    1  UNL1        0.0160
      6 C          58.2340   91.9405    4.4909 C.ar    1  UNL1        0.0160
      7 N          58.5945   89.0289    7.1635 N.am    1  UNL1       -0.2680
      8 C          59.6529   88.5241    8.0989 C.2     1  UNL1        0.3093
      9 O          61.0617   89.0249    7.9779 O.2     1  UNL1       -0.2521
     10 N          59.3026   87.5185    9.1553 N.am    1  UNL1       -0.2508
     11 H          57.6699   88.7003    7.2430 H       1  UNL1        0.1564
     12 H          58.3780   87.1898    9.2347 H       1  UNL1        0.1579
     13 C          60.3611   87.0136   10.0907 C.ar    1  UNL1        0.1771
     14 C          61.1591   85.7548    9.9222 C.ar    1  UNL1        0.0734
     15 C          62.0985   85.6422   11.0862 C.ar    1  UNL1        0.1549
     16 O          61.8810   86.8314   11.9741 O.2     1  UNL1       -0.3565
     17 N          60.8072   87.6791   11.3588 N.ar    1  UNL1       -0.0621
     18 C          63.0826   84.5347   11.3210 C.3     1  UNL1        0.0539
     19 C          62.8585   84.6493   12.7997 C.3     1  UNL1        0.0076
     20 C          63.3066   84.4202    9.8422 C.3     1  UNL1        0.0076
     21 C          64.0666   83.4273   11.5558 C.3     1  UNL1        0.0076
     22 C          61.1918   92.8310    2.0599 C.2     1  UNL1        0.2672
     23 O          62.0374   91.6050    2.2382 O.2     1  UNL1       -0.2682
     24 N          59.9958   93.0514    2.9379 N.am    1  UNL1       -0.2791
     25 H          59.4408   93.8561    2.8209 H       1  UNL1        0.1552
     26 C          62.2429   95.8478   -1.1095 C.ar    1  UNL1        0.1575
     27 C          61.9188   94.4352   -1.4965 C.ar    1  UNL1        0.0402
     28 C          61.5685   93.4297   -0.4401 C.ar    1  UNL1        0.0269
     29 C          61.5421   93.8366    1.0034 C.ar    1  UNL1        0.1350
     30 N          61.8662   95.2491    1.3905 N.ar    1  UNL1       -0.2361
     31 C          62.2166   96.2547    0.3340 C.ar    1  UNL1        0.1357
     32 O          62.5933   96.8533   -2.1659 O.3     1  UNL1       -0.4775
     33 N          64.4594   95.4994   -6.0304 N.3     1  UNL1       -0.2724
     34 C          65.2890   95.5754   -4.7831 C.3     1  UNL1        0.0758
     35 C          64.6670   96.0267   -3.4949 C.3     1  UNL1        0.0609
     36 C          63.2153   96.4020   -3.4541 C.3     1  UNL1        0.1688
     37 C          62.3857   96.3260   -4.7014 C.3     1  UNL1        0.0609
     38 C          63.0077   95.8747   -5.9896 C.3     1  UNL1        0.0758
     39 C          66.5015   94.5653   -7.3371 C.3     1  UNL1        0.0188
     40 C          65.0815   95.0481   -7.3186 C.3     1  UNL1        0.0721
@<TRIPOS>BOND
     1    39    40    1
     2    40    33    1
     3    33    34    1
     4    34    35    1
     5    35    36    1
     6    36    32    1
     7    32    26    1
     8    26    27   ar
     9    27    28   ar
    10    28    29   ar
    11    29    22    1
    12    22    23    2
    13    22    24   am
    14    24     1    1
    15     1     2   ar
    16     2     3   ar
    17     3     4   ar
    18     4     7    1
    19     7     8   am
    20     8     9    2
    21     8    10   am
    22    10    13    1
    23    13    14   ar
    24    14    15   ar
    25    15    18    1
    26    18    19    1
    27    18    20    1
    28    18    21    1
    29    15    16   ar
    30    16    17   ar
    31     4     5   ar
    32     5     6   ar
    33    29    30   ar
    34    30    31   ar
    35    36    37    1
    36    37    38    1
    37    38    33    1
    38    31    26   ar
    39     6     1   ar
    40    17    13   ar
    41    24    25    1
    42     7    11    1
    43    10    12    1
@<TRIPOS>MOLECULE
*****
 40 43 0 0 0
SMALL
GASTEIGER

@<TRIPOS>ATOM
      1 C          60.8309   91.6629    4.0351 C.ar    1  UNL1        0.0507
      2 C          61.9727   91.7571    3.0668 C.ar    1  UNL1        0.0160
      3 C          61.8250   92.5611    1.8091 C.ar    1  UNL1        0.0160
      4 C          60.5356   93.2709    1.5197 C.ar    1  UNL1        0.0517
      5 C          59.3939   93.1767    2.4880 C.ar    1  UNL1        0.0160
      6 C          59.5415   92.3727    3.7457 C.ar    1  UNL1        0.0160
      7 N          60.3880   94.0748    0.2620 N.am    1  UNL1       -0.2680
      8 C          59.1026   94.0305   -0.5099 C.2     1  UNL1        0.3093
      9 O          57.9649   93.1822   -0.0241 O.2     1  UNL1       -0.2521
     10 N          58.9549   94.8345   -1.7676 N.am    1  UNL1       -0.2508
     11 H          61.1347   94.6316   -0.0568 H       1  UNL1        0.1564
     12 H          59.7016   95.3913   -2.0864 H       1  UNL1        0.1579
     13 C          57.6695   94.7901   -2.5395 C.ar    1  UNL1        0.1771
     14 C          56.4403   95.6006   -2.2526 C.ar    1  UNL1        0.0734
     15 C          55.3988   95.2389   -3.2697 C.ar    1  UNL1        0.1549
     16 O          55.9843   94.2049   -4.1852 O.2     1  UNL1       -0.3565
     17 N          57.3877   93.9275   -3.7339 N.ar    1  UNL1       -0.0621
     18 C          54.0148   95.8108   -3.3561 C.3     1  UNL1        0.0539
     19 C          54.2493   96.1607   -4.7957 C.3     1  UNL1        0.0076
     20 C          53.7803   95.4608   -1.9164 C.3     1  UNL1        0.0076
     21 C          52.6308   96.3826   -3.4425 C.3     1  UNL1        0.0076
     22 C          59.7665   90.2764    5.9572 C.2     1  UNL1        0.2672
     23 O          58.4067   90.4979    5.3639 O.2     1  UNL1       -0.2682
     24 N          60.9786   90.8589    5.2928 N.am    1  UNL1       -0.2791
     25 H          61.8710   90.7136    5.6822 H       1  UNL1        0.1552
     26 C          60.2093   87.8644    9.7303 C.ar    1  UNL1        0.1575
     27 C          59.5068   87.2765    8.5424 C.ar    1  UNL1        0.0402
     28 C          59.3592   88.0805    7.2847 C.ar    1  UNL1        0.0269
     29 C          59.9141   89.4724    7.2149 C.ar    1  UNL1        0.1350
     30 N          60.6166   90.0602    8.4027 N.ar    1  UNL1       -0.2361
     31 C          60.7642   89.2562    9.6605 C.ar    1  UNL1        0.1357
     32 O          60.3569   87.0603   10.9879 O.3     1  UNL1       -0.4775
     33 N          63.5526   83.9056   11.2797 N.3     1  UNL1       -0.2724
     34 C          62.9170   84.4468   12.5259 C.3     1  UNL1        0.0758
     35 C          61.8518   85.4984   12.4286 C.3     1  UNL1        0.0609
     36 C          61.4221   86.0088   11.0852 C.3     1  UNL1        0.1688
     37 C          62.0577   85.4675    9.8390 C.3     1  UNL1        0.0609
     38 C          63.1229   84.4159    9.9362 C.3     1  UNL1        0.0758
     39 C          64.5857   81.8550   12.4954 C.3     1  UNL1        0.0188
     40 C          64.6178   82.8540   11.3769 C.3     1  UNL1        0.0721
@<TRIPOS>BOND
     1    39    40    1
     2    40    33    1
     3    33    34    1
     4    34    35    1
     5    35    36    1
     6    36    32    1
     7    32    26    1
     8    26    27   ar
     9    27    28   ar
    10    28    29   ar
    11    29    22    1
    12    22    23    2
    13    22    24   am
    14    24     1    1
    15     1     2   ar
    16     2     3   ar
    17     3     4   ar
    18     4     7    1
    19     7     8   am
    20     8     9    2
    21     8    10   am
    22    10    13    1
    23    13    14   ar
    24    14    15   ar
    25    15    18    1
    26    18    19    1
    27    18    20    1
    28    18    21    1
    29    15    16   ar
    30    16    17   ar
    31     4     5   ar
    32     5     6   ar
    33    29    30   ar
    34    30    31   ar
    35    36    37    1
    36    37    38    1
    37    38    33    1
    38    31    26   ar
    39     6     1   ar
    40    17    13   ar
    41    24    25    1
    42     7    11    1
    43    10    12    1
@<TRIPOS>MOLECULE
*****
 40 43 0 0 0
SMALL
GASTEIGER

@<TRIPOS>ATOM
      1 C          60.8556   91.5970    4.2278 C.ar    1  UNL1        0.0507
      2 C          59.5857   92.3454    3.9493 C.ar    1  UNL1        0.0160
      3 C          59.4335   93.1144    2.6705 C.ar    1  UNL1        0.0160
      4 C          60.5510   93.1350    1.6701 C.ar    1  UNL1        0.0517
      5 C          61.8208   92.3866    1.9486 C.ar    1  UNL1        0.0160
      6 C          61.9731   91.6176    3.2274 C.ar    1  UNL1        0.0160
      7 N          60.3988   93.9040    0.3913 N.am    1  UNL1       -0.2680
      8 C          61.5613   94.0361   -0.5474 C.2     1  UNL1        0.3093
      9 O          62.8760   93.3991   -0.2073 O.2     1  UNL1       -0.2521
     10 N          61.4091   94.8051   -1.8263 N.am    1  UNL1       -0.2508
     11 H          59.5359   94.3221    0.1681 H       1  UNL1        0.1564
     12 H          60.5461   95.2232   -2.0495 H       1  UNL1        0.1579
     13 C          62.5716   94.9371   -2.7650 C.ar    1  UNL1        0.1771
     14 C          62.9950   93.9286   -3.7914 C.ar    1  UNL1        0.0734
     15 C          64.1999   94.4690   -4.5029 C.ar    1  UNL1        0.1549
     16 O          64.5211   95.8117   -3.9161 O.2     1  UNL1       -0.3565
     17 N          63.5147   96.1010   -2.8420 N.ar    1  UNL1       -0.0621
     18 C          64.9515   93.7867   -5.6072 C.3     1  UNL1        0.0539
     19 C          64.6932   92.4576   -4.9616 C.3     1  UNL1        0.0076
     20 C          65.2097   95.1159   -6.2527 C.3     1  UNL1        0.0076
     21 C          65.7031   93.1044   -6.7114 C.3     1  UNL1        0.0076
     22 C          59.8237   90.1305    6.1078 C.2     1  UNL1        0.2672
     23 O          58.4875   90.2019    5.4301 O.2     1  UNL1       -0.2682
     24 N          61.0078   90.8280    5.5066 N.am    1  UNL1       -0.2791
     25 H          61.8848   90.7811    5.9514 H       1  UNL1        0.1552
     26 C          60.2803   87.8233    9.9443 C.ar    1  UNL1        0.1575
     27 C          59.5556   87.2109    8.7825 C.ar    1  UNL1        0.0402
     28 C          59.4034   87.9799    7.5037 C.ar    1  UNL1        0.0269
     29 C          59.9759   89.3614    7.3867 C.ar    1  UNL1        0.1350
     30 N          60.7006   89.9738    8.5484 N.ar    1  UNL1       -0.2361
     31 C          60.8528   89.2048    9.8273 C.ar    1  UNL1        0.1357
     32 O          60.4325   87.0542   11.2231 O.3     1  UNL1       -0.4775
     33 N          63.5868   83.8634   11.5681 N.3     1  UNL1       -0.2724
     34 C          63.1516   84.3447   10.2157 C.3     1  UNL1        0.0758
     35 C          62.1002   85.4083   10.1007 C.3     1  UNL1        0.0609
     36 C          61.4839   85.9906   11.3381 C.3     1  UNL1        0.1688
     37 C          61.9191   85.5093   12.6904 C.3     1  UNL1        0.0609
     38 C          62.9706   84.4457   12.8054 C.3     1  UNL1        0.0758
     39 C          64.4244   81.6294   12.5964 C.3     1  UNL1        0.0188
     40 C          64.6382   82.7998   11.6830 C.3     1  UNL1        0.0721
@<TRIPOS>BOND
     1    39    40    1
     2    40    33    1
     3    33    34    1
     4    34    35    1
     5    35    36    1
     6    36    32    1
     7    32    26    1
     8    26    27   ar
     9    27    28   ar
    10    28    29   ar
    11    29    22    1
    12    22    23    2
    13    22    24   am
    14    24     1    1
    15     1     2   ar
    16     2     3   ar
    17     3     4   ar
    18     4     7    1
    19     7     8   am
    20     8     9    2
    21     8    10   am
    22    10    13    1
    23    13    14   ar
    24    14    15   ar
    25    15    18    1
    26    18    19    1
    27    18    20    1
    28    18    21    1
    29    15    16   ar
    30    16    17   ar
    31     4     5   ar
    32     5     6   ar
    33    29    30   ar
    34    30    31   ar
    35    36    37    1
    36    37    38    1
    37    38    33    1
    38    31    26   ar
    39     6     1   ar
    40    17    13   ar
    41    24    25    1
    42     7    11    1
    43    10    12    1
@<TRIPOS>MOLECULE
*****
 40 43 0 0 0
SMALL
GASTEIGER

@<TRIPOS>ATOM
      1 C          59.0146   91.4980    4.5300 C.ar    1  UNL1        0.0507
      2 C          60.2677   90.8693    5.0635 C.ar    1  UNL1        0.0160
      3 C          60.1871   89.8511    6.1619 C.ar    1  UNL1        0.0160
      4 C          58.8533   89.4614    6.7269 C.ar    1  UNL1        0.0517
      5 C          57.6002   90.0900    6.1935 C.ar    1  UNL1        0.0160
      6 C          57.6808   91.1084    5.0951 C.ar    1  UNL1        0.0160
      7 N          58.7726   88.4431    7.8253 N.am    1  UNL1       -0.2680
      8 C          59.9243   88.2661    8.7700 C.2     1  UNL1        0.3093
      9 O          61.1566   89.1074    8.6162 O.2     1  UNL1       -0.2521
     10 N          59.8437   87.2478    9.8684 N.am    1  UNL1       -0.2508
     11 H          57.9638   87.8909    7.9262 H       1  UNL1        0.1564
     12 H          59.0348   86.6956    9.9693 H       1  UNL1        0.1579
     13 C          60.9953   87.0707   10.8131 C.ar    1  UNL1        0.1771
     14 C          61.5501   85.7618   11.2915 C.ar    1  UNL1        0.0734
     15 C          62.6920   86.0537   12.2192 C.ar    1  UNL1        0.1549
     16 O          62.8430   87.5431   12.3143 O.2     1  UNL1       -0.3565
     17 N          61.7944   88.1717   11.4451 N.ar    1  UNL1       -0.0621
     18 C          63.5350   85.0350   12.9277 C.3     1  UNL1        0.0539
     19 C          63.1039   83.9916   11.9400 C.3     1  UNL1        0.0076
     20 C          63.9660   86.0785   13.9153 C.3     1  UNL1        0.0076
     21 C          64.3779   84.0165   13.6360 C.3     1  UNL1        0.0076
     22 C          60.4045   92.7814    2.7494 C.2     1  UNL1        0.2672
     23 O          61.6331   92.0281    3.1655 O.2     1  UNL1       -0.2682
     24 N          59.0953   92.5163    3.4316 N.am    1  UNL1       -0.2791
     25 H          58.2889   93.0107    3.1585 H       1  UNL1        0.1552
     26 C          60.6467   95.8363   -0.5460 C.ar    1  UNL1        0.1575
     27 C          61.1948   94.4565   -0.7605 C.ar    1  UNL1        0.0402
     28 C          61.1140   93.4383    0.3379 C.ar    1  UNL1        0.0269
     29 C          60.4852   93.7997    1.6509 C.ar    1  UNL1        0.1350
     30 N          59.9372   95.1794    1.8655 N.ar    1  UNL1       -0.2361
     31 C          60.0179   96.1977    0.7670 C.ar    1  UNL1        0.1357
     32 O          60.7274   96.8546   -1.6444 O.3     1  UNL1       -0.4775
     33 N          59.2613   95.8307   -5.7739 N.3     1  UNL1       -0.2724
     34 C          60.6833   96.2616   -5.5683 C.3     1  UNL1        0.0758
     35 C          61.1720   96.6029   -4.1918 C.3     1  UNL1        0.0609
     36 C          60.2387   96.5133   -3.0209 C.3     1  UNL1        0.1688
     37 C          58.8168   96.0823   -3.2265 C.3     1  UNL1        0.0609
     38 C          58.3281   95.7411   -4.6030 C.3     1  UNL1        0.0758
     39 C          58.6231   94.0538   -7.5586 C.3     1  UNL1        0.0188
     40 C          58.7726   95.4894   -7.1504 C.3     1  UNL1        0.0721
@<TRIPOS>BOND
     1    39    40    1
     2    40    33    1
     3    33    34    1
     4    34    35    1
     5    35    36    1
     6    36    32    1
     7    32    26    1
     8    26    27   ar
     9    27    28   ar
    10    28    29   ar
    11    29    22    1
    12    22    23    2
    13    22    24   am
    14    24     1    1
    15     1     2   ar
    16     2     3   ar
    17     3     4   ar
    18     4     7    1
    19     7     8   am
    20     8     9    2
    21     8    10   am
    22    10    13    1
    23    13    14   ar
    24    14    15   ar
    25    15    18    1
    26    18    19    1
    27    18    20    1
    28    18    21    1
    29    15    16   ar
    30    16    17   ar
    31     4     5   ar
    32     5     6   ar
    33    29    30   ar
    34    30    31   ar
    35    36    37    1
    36    37    38    1
    37    38    33    1
    38    31    26   ar
    39     6     1   ar
    40    17    13   ar
    41    24    25    1
    42     7    11    1
    43    10    12    1
@<TRIPOS>MOLECULE
*****
 40 43 0 0 0
SMALL
GASTEIGER

@<TRIPOS>ATOM
      1 C          59.3065   91.7748    4.2374 C.ar    1  UNL1        0.0507
      2 C          60.5946   91.2395    4.7890 C.ar    1  UNL1        0.0160
      3 C          60.5750   90.2672    5.9310 C.ar    1  UNL1        0.0160
      4 C          59.2672   89.8301    6.5215 C.ar    1  UNL1        0.0517
      5 C          57.9791   90.3654    5.9700 C.ar    1  UNL1        0.0160
      6 C          57.9987   91.3377    4.8279 C.ar    1  UNL1        0.0160
      7 N          59.2475   88.8579    7.6635 N.am    1  UNL1       -0.2680
      8 C          60.3162   88.9138    8.7147 C.2     1  UNL1        0.3093
      9 O          61.4045   89.9421    8.6238 O.2     1  UNL1       -0.2521
     10 N          60.2965   87.9415    9.8567 N.am    1  UNL1       -0.2508
     11 H          58.5332   88.1830    7.7231 H       1  UNL1        0.1564
     12 H          59.5822   87.2666    9.9163 H       1  UNL1        0.1579
     13 C          61.3652   87.9975   10.9079 C.ar    1  UNL1        0.1771
     14 C          62.0254   89.2396   11.4288 C.ar    1  UNL1        0.0734
     15 C          63.0294   88.8309   12.4655 C.ar    1  UNL1        0.1549
     16 O          62.9898   87.3362   12.5853 O.2     1  UNL1       -0.3565
     17 N          61.9612   86.8211   11.6226 N.ar    1  UNL1       -0.0621
     18 C          63.9173   89.7547   13.2455 C.3     1  UNL1        0.0539
     19 C          63.6458   90.8499   12.2571 C.3     1  UNL1        0.0076
     20 C          64.1887   88.6594   14.2338 C.3     1  UNL1        0.0076
     21 C          64.8050   90.6785   14.0254 C.3     1  UNL1        0.0076
     22 C          60.5890   92.9620    2.3151 C.2     1  UNL1        0.2672
     23 O          61.8322   92.2046    2.6768 O.2     1  UNL1       -0.2682
     24 N          59.3261   92.7471    3.0954 N.am    1  UNL1       -0.2791
     25 H          58.5102   93.2441    2.8580 H       1  UNL1        0.1552
     26 C          60.6481   95.8789   -1.1111 C.ar    1  UNL1        0.1575
     27 C          59.3460   95.5040   -0.4676 C.ar    1  UNL1        0.0402
     28 C          59.3263   94.5317    0.6744 C.ar    1  UNL1        0.0269
     29 C          60.6087   93.9343    1.1730 C.ar    1  UNL1        0.1350
     30 N          61.9108   94.3092    0.5296 N.ar    1  UNL1       -0.2361
     31 C          61.9305   95.2815   -0.6125 C.ar    1  UNL1        0.1357
     32 O          60.6678   96.8512   -2.2531 O.3     1  UNL1       -0.4775
     33 N          62.6048   95.7059   -6.1501 N.3     1  UNL1       -0.2724
     34 C          61.1494   95.4220   -5.9240 C.3     1  UNL1        0.0758
     35 C          60.5037   95.8037   -4.6250 C.3     1  UNL1        0.0609
     36 C          61.3134   96.4694   -3.5521 C.3     1  UNL1        0.1688
     37 C          62.7688   96.7534   -3.7782 C.3     1  UNL1        0.0609
     38 C          63.4145   96.3716   -5.0772 C.3     1  UNL1        0.0758
     39 C          64.0189   94.0405   -7.5559 C.3     1  UNL1        0.0188
     40 C          63.2504   95.3242   -7.4491 C.3     1  UNL1        0.0721
@<TRIPOS>BOND
     1    39    40    1
     2    40    33    1
     3    33    34    1
     4    34    35    1
     5    35    36    1
     6    36    32    1
     7    32    26    1
     8    26    27   ar
     9    27    28   ar
    10    28    29   ar
    11    29    22    1
    12    22    23    2
    13    22    24   am
    14    24     1    1
    15     1     2   ar
    16     2     3   ar
    17     3     4   ar
    18     4     7    1
    19     7     8   am
    20     8     9    2
    21     8    10   am
    22    10    13    1
    23    13    14   ar
    24    14    15   ar
    25    15    18    1
    26    18    19    1
    27    18    20    1
    28    18    21    1
    29    15    16   ar
    30    16    17   ar
    31     4     5   ar
    32     5     6   ar
    33    29    30   ar
    34    30    31   ar
    35    36    37    1
    36    37    38    1
    37    38    33    1
    38    31    26   ar
    39     6     1   ar
    40    17    13   ar
    41    24    25    1
    42     7    11    1
    43    10    12    1
@<TRIPOS>MOLECULE
*****
 40 43 0 0 0
SMALL
GASTEIGER

@<TRIPOS>ATOM
      1 C          60.1917   90.8795    5.7797 C.ar    1  UNL1        0.0507
      2 C          61.0931   91.3234    4.6659 C.ar    1  UNL1        0.0160
      3 C          60.5117   91.9645    3.4408 C.ar    1  UNL1        0.0160
      4 C          59.0289   92.1617    3.3294 C.ar    1  UNL1        0.0517
      5 C          58.1275   91.7179    4.4431 C.ar    1  UNL1        0.0160
      6 C          58.7089   91.0767    5.6683 C.ar    1  UNL1        0.0160
      7 N          58.4475   92.8029    2.1043 N.am    1  UNL1       -0.2680
      8 C          59.3522   93.2878    1.0104 C.2     1  UNL1        0.3093
      9 O          60.8383   93.1315    1.1417 O.2     1  UNL1       -0.2521
     10 N          58.7708   93.9289   -0.2147 N.am    1  UNL1       -0.2508
     11 H          57.4722   92.9054    2.0181 H       1  UNL1        0.1564
     12 H          57.7955   94.0314   -0.3009 H       1  UNL1        0.1579
     13 C          59.6755   94.4138   -1.3086 C.ar    1  UNL1        0.1771
     14 C          60.5027   93.5518   -2.2156 C.ar    1  UNL1        0.0734
     15 C          61.2502   94.4511   -3.1550 C.ar    1  UNL1        0.1549
     16 O          60.8849   95.8689   -2.8286 O.2     1  UNL1       -0.3565
     17 N          59.9116   95.8458   -1.6874 N.ar    1  UNL1       -0.0621
     18 C          62.1968   94.0101   -4.2318 C.3     1  UNL1        0.0539
     19 C          61.3641   94.7230   -5.2557 C.3     1  UNL1        0.0076
     20 C          63.0295   93.2971   -3.2079 C.3     1  UNL1        0.0076
     21 C          63.1433   93.5690   -5.3086 C.3     1  UNL1        0.0076
     22 C          60.1048   89.0415    7.6138 C.2     1  UNL1        0.2672
     23 O          58.8552   88.4857    6.9976 O.2     1  UNL1       -0.2682
     24 N          60.7731   90.2384    7.0048 N.am    1  UNL1       -0.2791
     25 H          61.5932   90.6031    7.4091 H       1  UNL1        0.1552
     26 C          61.8490   87.1180   11.2892 C.ar    1  UNL1        0.1575
     27 C          62.2795   88.4980   10.8888 C.ar    1  UNL1        0.0402
     28 C          61.6981   89.1391    9.6637 C.ar    1  UNL1        0.0269
     29 C          60.6862   88.4003    8.8389 C.ar    1  UNL1        0.1350
     30 N          60.2557   87.0203    9.2393 N.ar    1  UNL1       -0.2361
     31 C          60.8371   86.3791   10.4644 C.ar    1  UNL1        0.1357
     32 O          62.4304   86.4769   12.5143 O.3     1  UNL1       -0.4775
     33 N          62.9369   82.0090   12.6906 N.3     1  UNL1       -0.2724
     34 C          63.1475   82.7371   11.3963 C.3     1  UNL1        0.0758
     35 C          62.9786   84.2264   11.3375 C.3     1  UNL1        0.0609
     36 C          62.5992   84.9876   12.5731 C.3     1  UNL1        0.1688
     37 C          62.3886   84.2594   13.8674 C.3     1  UNL1        0.0609
     38 C          62.5575   82.7701   13.9262 C.3     1  UNL1        0.0758
     39 C          62.0564   79.6711   13.4042 C.3     1  UNL1        0.0188
     40 C          63.1058   80.5197   12.7494 C.3     1  UNL1        0.0721
@<TRIPOS>BOND
     1    39    40    1
     2    40    33    1
     3    33    34    1
     4    34    35    1
     5    35    36    1
     6    36    32    1
     7    32    26    1
     8    26    27   ar
     9    27    28   ar
    10    28    29   ar
    11    29    22    1
    12    22    23    2
    13    22    24   am
    14    24     1    1
    15     1     2   ar
    16     2     3   ar
    17     3     4   ar
    18     4     7    1
    19     7     8   am
    20     8     9    2
    21     8    10   am
    22    10    13    1
    23    13    14   ar
    24    14    15   ar
    25    15    18    1
    26    18    19    1
    27    18    20    1
    28    18    21    1
    29    15    16   ar
    30    16    17   ar
    31     4     5   ar
    32     5     6   ar
    33    29    30   ar
    34    30    31   ar
    35    36    37    1
    36    37    38    1
    37    38    33    1
    38    31    26   ar
    39     6     1   ar
    40    17    13   ar
    41    24    25    1
    42     7    11    1
    43    10    12    1
@<TRIPOS>MOLECULE
*****
 40 43 0 0 0
SMALL
GASTEIGER

@<TRIPOS>ATOM
      1 C          59.8533   89.6260    6.6285 C.ar    1  UNL1        0.0507
      2 C          60.9162   90.2928    5.8064 C.ar    1  UNL1        0.0160
      3 C          60.5344   91.2917    4.7546 C.ar    1  UNL1        0.0160
      4 C          59.0898   91.6239    4.5248 C.ar    1  UNL1        0.0517
      5 C          58.0270   90.9571    5.3468 C.ar    1  UNL1        0.0160
      6 C          58.4087   89.9582    6.3987 C.ar    1  UNL1        0.0160
      7 N          58.7080   92.6228    3.4730 N.am    1  UNL1       -0.2680
      8 C          59.6785   92.9735    2.3842 C.2     1  UNL1        0.3093
      9 O          61.0307   92.3253    2.3474 O.2     1  UNL1       -0.2521
     10 N          59.2967   93.9724    1.3324 N.am    1  UNL1       -0.2508
     11 H          57.8205   93.0482    3.4971 H       1  UNL1        0.1564
     12 H          58.4092   94.3979    1.3566 H       1  UNL1        0.1579
     13 C          60.2671   94.3232    0.2436 C.ar    1  UNL1        0.1771
     14 C          61.6315   94.9161    0.4360 C.ar    1  UNL1        0.0734
     15 C          62.2511   95.1019   -0.9174 C.ar    1  UNL1        0.1549
     16 O          61.2697   94.6239   -1.9462 O.2     1  UNL1       -0.3565
     17 N          60.0435   94.1426   -1.2286 N.ar    1  UNL1       -0.0621
     18 C          63.6131   95.6666   -1.1935 C.3     1  UNL1        0.0539
     19 C          64.1763   94.8624   -0.0595 C.3     1  UNL1        0.0076
     20 C          63.0497   96.4708   -2.3275 C.3     1  UNL1        0.0076
     21 C          64.9749   96.2313   -1.4696 C.3     1  UNL1        0.0076
     22 C          61.0757   89.0516    8.8478 C.2     1  UNL1        0.2672
     23 O          61.5346   90.4750    8.9635 O.2     1  UNL1       -0.2682
     24 N          60.2351   88.6271    7.6803 N.am    1  UNL1       -0.2791
     25 H          59.9340   87.6929    7.6044 H       1  UNL1        0.1552
     26 C          62.2212   86.0549   12.0035 C.ar    1  UNL1        0.1575
     27 C          61.3341   85.6441   10.8657 C.ar    1  UNL1        0.0402
     28 C          60.9524   86.6430    9.8139 C.ar    1  UNL1        0.0269
     29 C          61.4576   88.0527    9.8998 C.ar    1  UNL1        0.1350
     30 N          62.3446   88.4636   11.0374 N.ar    1  UNL1       -0.2361
     31 C          62.7264   87.4646   12.0894 C.ar    1  UNL1        0.1357
     32 O          62.6030   85.0560   13.0553 O.3     1  UNL1       -0.4775
     33 N          62.7174   80.6696   12.0569 N.3     1  UNL1       -0.2724
     34 C          63.2391   81.6762   11.0748 C.3     1  UNL1        0.0758
     35 C          63.2010   83.1383   11.4076 C.3     1  UNL1        0.0609
     36 C          62.6411   83.5939   12.7225 C.3     1  UNL1        0.1688
     37 C          62.1193   82.5873   13.7046 C.3     1  UNL1        0.0609
     38 C          62.1575   81.1252   13.3718 C.3     1  UNL1        0.0758
     39 C          62.8461   78.7661   10.2934 C.3     1  UNL1        0.0188
     40 C          62.7555   79.2075   11.7241 C.3     1  UNL1        0.0721
@<TRIPOS>BOND
     1    39    40    1
     2    40    33    1
     3    33    34    1
     4    34    35    1
     5    35    36    1
     6    36    32    1
     7    32    26    1
     8    26    27   ar
     9    27    28   ar
    10    28    29   ar
    11    29    22    1
    12    22    23    2
    13    22    24   am
    14    24     1    1
    15     1     2   ar
    16     2     3   ar
    17     3     4   ar
    18     4     7    1
    19     7     8   am
    20     8     9    2
    21     8    10   am
    22    10    13    1
    23    13    14   ar
    24    14    15   ar
    25    15    18    1
    26    18    19    1
    27    18    20    1
    28    18    21    1
    29    15    16   ar
    30    16    17   ar
    31     4     5   ar
    32     5     6   ar
    33    29    30   ar
    34    30    31   ar
    35    36    37    1
    36    37    38    1
    37    38    33    1
    38    31    26   ar
    39     6     1   ar
    40    17    13   ar
    41    24    25    1
    42     7    11    1
    43    10    12    1
@<TRIPOS>MOLECULE
*****
 40 43 0 0 0
SMALL
GASTEIGER

@<TRIPOS>ATOM
      1 C          61.1829   89.2456    9.3227 C.ar    1  UNL1        0.0507
      2 C          62.4082   89.4968   10.1508 C.ar    1  UNL1        0.0160
      3 C          62.7286   88.5979   11.3080 C.ar    1  UNL1        0.0160
      4 C          61.8237   87.4478   11.6373 C.ar    1  UNL1        0.0517
      5 C          60.5984   87.1966   10.8094 C.ar    1  UNL1        0.0160
      6 C          60.2780   88.0955    9.6520 C.ar    1  UNL1        0.0160
      7 N          62.1440   86.5489   12.7946 N.am    1  UNL1       -0.2680
      8 C          62.3218   85.0759   12.5734 C.2     1  UNL1        0.3093
      9 O          62.1792   84.5019   11.1950 O.2     1  UNL1       -0.2521
     10 N          62.6421   84.1770   13.7307 N.am    1  UNL1       -0.2508
     11 H          62.2376   86.9256   13.6993 H       1  UNL1        0.1564
     12 H          62.7357   84.5538   14.6354 H       1  UNL1        0.1579
     13 C          62.8199   82.7041   13.5095 C.ar    1  UNL1        0.1771
     14 C          62.5925   81.9724   12.2200 C.ar    1  UNL1        0.0734
     15 C          62.8884   80.5203   12.4526 C.ar    1  UNL1        0.1549
     16 O          63.2986   80.3546   13.8859 O.2     1  UNL1       -0.3565
     17 N          63.2563   81.7044   14.5392 N.ar    1  UNL1       -0.0621
     18 C          62.7911   79.4261   11.4312 C.3     1  UNL1        0.0539
     19 C          62.4165   78.4530   12.5096 C.3     1  UNL1        0.0076
     20 C          63.1657   80.3993   10.3530 C.3     1  UNL1        0.0076
     21 C          62.6938   78.3319   10.4099 C.3     1  UNL1        0.0076
     22 C          60.0849   89.6149    6.9973 C.2     1  UNL1        0.2672
     23 O          59.6275   88.1863    6.9865 O.2     1  UNL1       -0.2682
     24 N          60.8626   90.1445    8.1654 N.am    1  UNL1       -0.2791
     25 H          61.1628   91.0821    8.1726 H       1  UNL1        0.1552
     26 C          59.1237   92.3115    3.5253 C.ar    1  UNL1        0.1575
     27 C          58.0206   91.7905    4.3981 C.ar    1  UNL1        0.0402
     28 C          58.3410   90.8916    5.5554 C.ar    1  UNL1        0.0269
     29 C          59.7645   90.5138    5.8399 C.ar    1  UNL1        0.1350
     30 N          60.8675   91.0348    4.9672 N.ar    1  UNL1       -0.2361
     31 C          60.5472   91.9337    3.8098 C.ar    1  UNL1        0.1357
     32 O          58.8033   93.2104    2.3680 O.3     1  UNL1       -0.4775
     33 N          61.9422   94.0899   -0.7342 N.3     1  UNL1       -0.2724
     34 C          61.0163   92.9235   -0.9138 C.3     1  UNL1        0.0758
     35 C          59.9700   92.6304    0.1203 C.3     1  UNL1        0.0609
     36 C          59.8496   93.5035    1.3339 C.3     1  UNL1        0.1688
     37 C          60.7755   94.6699    1.5135 C.3     1  UNL1        0.0609
     38 C          61.8218   94.9631    0.4794 C.3     1  UNL1        0.0758
     39 C          63.4519   93.2984   -2.6949 C.3     1  UNL1        0.0188
     40 C          62.9885   94.3831   -1.7683 C.3     1  UNL1        0.0721
@<TRIPOS>BOND
     1    39    40    1
     2    40    33    1
     3    33    34    1
     4    34    35    1
     5    35    36    1
     6    36    32    1
     7    32    26    1
     8    26    27   ar
     9    27    28   ar
    10    28    29   ar
    11    29    22    1
    12    22    23    2
    13    22    24   am
    14    24     1    1
    15     1     2   ar
    16     2     3   ar
    17     3     4   ar
    18     4     7    1
    19     7     8   am
    20     8     9    2
    21     8    10   am
    22    10    13    1
    23    13    14   ar
    24    14    15   ar
    25    15    18    1
    26    18    19    1
    27    18    20    1
    28    18    21    1
    29    15    16   ar
    30    16    17   ar
    31     4     5   ar
    32     5     6   ar
    33    29    30   ar
    34    30    31   ar
    35    36    37    1
    36    37    38    1
    37    38    33    1
    38    31    26   ar
    39     6     1   ar
    40    17    13   ar
    41    24    25    1
    42     7    11    1
    43    10    12    1
