@<TRIPOS>MOLECULE
*****
 29 32 0 0 0
SMALL
GASTEIGER

@<TRIPOS>ATOM
      1 C          63.2063   86.7690   12.9088 C.2     1  UNL1        0.3279
      2 N          62.3968   86.3368   11.7222 N.2     1  UNL1       -0.0020
      3 C          61.9966   87.3403   10.6817 C.2     1  UNL1        0.3340
      4 C          62.4058   88.7760   10.8277 C.2     1  UNL1        0.0879
      5 C          63.2152   89.2082   12.0142 C.2     1  UNL1        0.0161
      6 C          63.7607   90.5439   12.4245 C.2     1  UNL1       -0.0100
      7 C          63.5974   91.8315   11.6726 C.3     1  UNL1        0.0320
      8 C          64.4981   90.3660   13.7185 C.2     1  UNL1        0.0509
      9 C          65.2017   91.4445   14.4879 C.3     1  UNL1        0.0513
     10 N          64.4083   88.9202   14.1081 N.2     1  UNL1       -0.2602
     11 C          63.6155   88.2047   13.0548 C.3     1  UNL1        0.2298
     12 N          61.1871   86.9081    9.4950 N.am    1  UNL1       -0.1358
     13 C          59.7961   87.4358    9.3037 C.3     1  UNL1        0.2422
     14 C          58.9866   87.0036    8.1171 C.3     1  UNL1        0.1940
     15 O          59.5682   86.0438    7.1218 O.3     1  UNL1       -0.3382
     16 C          60.9592   85.5161    7.3131 C.3     1  UNL1        0.2554
     17 C          61.7687   85.9483    8.4998 C.2     1  UNL1        0.3436
     18 O          63.1597   85.4206    8.6911 O.2     1  UNL1       -0.2440
     19 N          63.6065   85.7655   13.9494 N.pl3   1  UNL1       -0.2166
     20 H          63.4011   85.9313   14.8978 H       1  UNL1        0.2923
     21 C          64.3198   84.5094   13.5449 C.3     1  UNL1        0.2258
     22 C          62.5358   83.5096   15.7398 C.3     1  UNL1        0.0308
     23 C          62.6579   82.7350   14.4611 C.ar    1  UNL1       -0.0223
     24 C          61.8880   81.4605   14.2799 C.ar    1  UNL1       -0.0045
     25 C          62.0101   80.6859   13.0012 C.ar    1  UNL1       -0.0007
     26 C          62.9021   81.1858   11.9037 C.ar    1  UNL1       -0.0045
     27 C          63.6720   82.4603   12.0849 C.ar    1  UNL1       -0.0223
     28 C          64.5640   82.9602   10.9875 C.3     1  UNL1        0.0308
     29 C          63.5499   83.2350   13.3637 C.ar    1  UNL1        0.0162
@<TRIPOS>BOND
     1    22    23    1
     2    23    24   ar
     3    24    25   ar
     4    25    26   ar
     5    26    27   ar
     6    27    28    1
     7    27    29   ar
     8    29    21    1
     9    21    19    1
    10    19     1    1
    11     1     2    2
    12     2     3    1
    13     3    12    1
    14    12    13    1
    15    13    14    1
    16    14    15    1
    17    15    16    1
    18    16    17    1
    19    17    18    2
    20     3     4    2
    21     4     5    1
    22     5     6    2
    23     6     7    1
    24     6     8    1
    25     8     9    1
    26     8    10    2
    27    10    11    1
    28    29    23   ar
    29    11     1    1
    30    17    12   am
    31    11     5    1
    32    19    20    1
@<TRIPOS>MOLECULE
*****
 29 32 0 0 0
SMALL
GASTEIGER

@<TRIPOS>ATOM
      1 C          63.2016   86.7652   12.9032 C.2     1  UNL1        0.3279
      2 N          62.3969   86.3298   11.7145 N.2     1  UNL1       -0.0020
      3 C          61.9987   87.3310   10.6710 C.2     1  UNL1        0.3340
      4 C          62.4050   88.7676   10.8162 C.2     1  UNL1        0.0879
      5 C          63.2096   89.2030   12.0048 C.2     1  UNL1        0.0161
      6 C          63.7515   90.5403   12.4148 C.2     1  UNL1       -0.0100
      7 C          63.5887   91.8264   11.6603 C.3     1  UNL1        0.0320
      8 C          64.4847   90.3656   13.7117 C.2     1  UNL1        0.0509
      9 C          65.1839   91.4464   14.4818 C.3     1  UNL1        0.0513
     10 N          64.3960   88.9203   14.1033 N.2     1  UNL1       -0.2602
     11 C          63.6079   88.2018   13.0483 C.3     1  UNL1        0.2298
     12 N          61.1940   86.8956    9.4823 N.am    1  UNL1       -0.1358
     13 C          59.8008   87.4165    9.2882 C.3     1  UNL1        0.2422
     14 C          58.9961   86.9812    8.0995 C.3     1  UNL1        0.1940
     15 O          59.5846   86.0249    7.1049 O.3     1  UNL1       -0.3382
     16 C          60.9779   85.5040    7.2989 C.3     1  UNL1        0.2554
     17 C          61.7825   85.9394    8.4877 C.2     1  UNL1        0.3436
     18 O          63.1757   85.4186    8.6818 O.2     1  UNL1       -0.2440
     19 N          63.5999   85.7640   13.9467 N.pl3   1  UNL1       -0.2166
     20 H          63.3928   85.9319   14.8945 H       1  UNL1        0.2923
     21 C          64.3137   84.5070   13.5463 C.3     1  UNL1        0.2258
     22 C          64.5476   82.9517   10.9917 C.3     1  UNL1        0.0308
     23 C          63.6618   82.4533   12.0947 C.ar    1  UNL1       -0.0223
     24 C          62.8928   81.1771   11.9205 C.ar    1  UNL1       -0.0045
     25 C          62.0070   80.6787   13.0235 C.ar    1  UNL1       -0.0007
     26 C          61.8900   81.4564   14.3009 C.ar    1  UNL1       -0.0045
     27 C          62.6589   82.7324   14.4751 C.ar    1  UNL1       -0.0223
     28 C          62.5419   83.5101   15.7525 C.3     1  UNL1        0.0308
     29 C          63.5448   83.2309   13.3720 C.ar    1  UNL1        0.0162
@<TRIPOS>BOND
     1    22    23    1
     2    23    24   ar
     3    24    25   ar
     4    25    26   ar
     5    26    27   ar
     6    27    28    1
     7    27    29   ar
     8    29    21    1
     9    21    19    1
    10    19     1    1
    11     1     2    2
    12     2     3    1
    13     3    12    1
    14    12    13    1
    15    13    14    1
    16    14    15    1
    17    15    16    1
    18    16    17    1
    19    17    18    2
    20     3     4    2
    21     4     5    1
    22     5     6    2
    23     6     7    1
    24     6     8    1
    25     8     9    1
    26     8    10    2
    27    10    11    1
    28    29    23   ar
    29    11     1    1
    30    17    12   am
    31    11     5    1
    32    19    20    1
@<TRIPOS>MOLECULE
*****
 29 32 0 0 0
SMALL
GASTEIGER

@<TRIPOS>ATOM
      1 C          62.1835   88.4180   11.4799 C.2     1  UNL1        0.3279
      2 N          62.7037   87.1986   12.1817 N.2     1  UNL1       -0.0020
      3 C          62.4205   85.8349   11.6250 C.2     1  UNL1        0.3340
      4 C          61.6171   85.6905   10.3666 C.2     1  UNL1        0.0879
      5 C          61.0970   86.9098    9.6648 C.2     1  UNL1        0.0161
      6 C          60.2827   87.0787    8.4164 C.2     1  UNL1       -0.0100
      7 C          59.7773   85.9734    7.5372 C.3     1  UNL1        0.0320
      8 C          60.0626   88.5468    8.2015 C.2     1  UNL1        0.0509
      9 C          59.2985   89.1675    7.0697 C.3     1  UNL1        0.0513
     10 N          60.7409   89.2854    9.3171 N.2     1  UNL1       -0.2602
     11 C          61.3801   88.2736   10.2215 C.3     1  UNL1        0.2298
     12 N          62.9407   84.6155   12.3268 N.am    1  UNL1       -0.1358
     13 C          62.6859   84.4280   13.7931 C.3     1  UNL1        0.2422
     14 C          63.2060   83.2087   14.4949 C.3     1  UNL1        0.1940
     15 O          63.9811   82.1767   13.7304 O.3     1  UNL1       -0.3382
     16 C          64.2359   82.3641   12.2642 C.3     1  UNL1        0.2554
     17 C          63.7157   83.5835   11.5624 C.2     1  UNL1        0.3436
     18 O          63.9705   83.7710   10.0961 O.2     1  UNL1       -0.2440
     19 N          62.4666   89.7818   12.0366 N.pl3   1  UNL1       -0.2166
     20 H          61.8130   90.5081   11.9162 H       1  UNL1        0.2923
     21 C          63.7457   90.0390   12.7768 C.3     1  UNL1        0.2258
     22 C          65.5214   91.1985   14.8987 C.3     1  UNL1        0.0308
     23 C          65.4264   91.8605   13.5561 C.ar    1  UNL1       -0.0223
     24 C          66.2193   93.1024   13.2743 C.ar    1  UNL1       -0.0045
     25 C          66.1243   93.7643   11.9317 C.ar    1  UNL1       -0.0007
     26 C          65.2365   93.1846   10.8707 C.ar    1  UNL1       -0.0045
     27 C          64.4436   91.9428   11.1524 C.ar    1  UNL1       -0.0223
     28 C          63.5557   91.3631   10.0915 C.3     1  UNL1        0.0308
     29 C          64.5386   91.2808   12.4951 C.ar    1  UNL1        0.0162
@<TRIPOS>BOND
     1    22    23    1
     2    23    24   ar
     3    24    25   ar
     4    25    26   ar
     5    26    27   ar
     6    27    28    1
     7    27    29   ar
     8    29    21    1
     9    21    19    1
    10    19     1    1
    11     1     2    2
    12     2     3    1
    13     3    12    1
    14    12    13    1
    15    13    14    1
    16    14    15    1
    17    15    16    1
    18    16    17    1
    19    17    18    2
    20     3     4    2
    21     4     5    1
    22     5     6    2
    23     6     7    1
    24     6     8    1
    25     8     9    1
    26     8    10    2
    27    10    11    1
    28    29    23   ar
    29    11     1    1
    30    17    12   am
    31    11     5    1
    32    19    20    1
@<TRIPOS>MOLECULE
*****
 29 32 0 0 0
SMALL
GASTEIGER

@<TRIPOS>ATOM
      1 C          62.3180   88.1062   11.7460 C.2     1  UNL1        0.3279
      2 N          62.8387   86.8377   12.3540 N.2     1  UNL1       -0.0020
      3 C          62.5715   85.5213   11.6865 C.2     1  UNL1        0.3340
      4 C          61.7835   85.4734   10.4110 C.2     1  UNL1        0.0879
      5 C          61.2628   86.7419    9.8030 C.2     1  UNL1        0.0161
      6 C          60.4617   87.0054    8.5626 C.2     1  UNL1       -0.0100
      7 C          59.9741   85.9712    7.5917 C.3     1  UNL1        0.0320
      8 C          60.2338   88.4847    8.4634 C.2     1  UNL1        0.0509
      9 C          59.4782   89.1894    7.3759 C.3     1  UNL1        0.0513
     10 N          60.8941   89.1355    9.6426 N.2     1  UNL1       -0.2602
     11 C          61.5301   88.0583   10.4705 C.3     1  UNL1        0.2298
     12 N          63.0922   84.2527   12.2945 N.am    1  UNL1       -0.1358
     13 C          63.9329   83.3185   11.4756 C.3     1  UNL1        0.2422
     14 C          64.4536   82.0499   12.0835 C.3     1  UNL1        0.1940
     15 O          64.1336   81.7155   13.5103 O.3     1  UNL1       -0.3382
     16 C          63.2929   82.6497   14.3292 C.3     1  UNL1        0.2554
     17 C          62.7722   83.9183   13.7212 C.2     1  UNL1        0.3436
     18 O          61.9315   84.8525   14.5401 O.2     1  UNL1       -0.2440
     19 N          62.5852   89.4227   12.4135 N.pl3   1  UNL1       -0.2166
     20 H          62.1261   89.6506   13.2540 H       1  UNL1        0.2923
     21 C          63.5520   90.3919   11.8003 C.3     1  UNL1        0.2258
     22 C          63.9619   89.5790   14.6589 C.3     1  UNL1        0.0308
     23 C          64.6938   90.7649   14.1040 C.ar    1  UNL1       -0.0223
     24 C          65.6307   91.5445   14.9785 C.ar    1  UNL1       -0.0045
     25 C          66.3626   92.7304   14.4237 C.ar    1  UNL1       -0.0007
     26 C          66.1577   93.1368   12.9944 C.ar    1  UNL1       -0.0045
     27 C          65.2208   92.3574   12.1200 C.ar    1  UNL1       -0.0223
     28 C          65.0159   92.7638   10.6907 C.3     1  UNL1        0.0308
     29 C          64.4889   91.1714   12.6748 C.ar    1  UNL1        0.0162
@<TRIPOS>BOND
     1    22    23    1
     2    23    24   ar
     3    24    25   ar
     4    25    26   ar
     5    26    27   ar
     6    27    28    1
     7    27    29   ar
     8    29    21    1
     9    21    19    1
    10    19     1    1
    11     1     2    2
    12     2     3    1
    13     3    12    1
    14    12    13    1
    15    13    14    1
    16    14    15    1
    17    15    16    1
    18    16    17    1
    19    17    18    2
    20     3     4    2
    21     4     5    1
    22     5     6    2
    23     6     7    1
    24     6     8    1
    25     8     9    1
    26     8    10    2
    27    10    11    1
    28    29    23   ar
    29    11     1    1
    30    17    12   am
    31    11     5    1
    32    19    20    1
@<TRIPOS>MOLECULE
*****
 29 32 0 0 0
SMALL
GASTEIGER

@<TRIPOS>ATOM
      1 C          62.2983   88.1089   11.7395 C.2     1  UNL1        0.3279
      2 N          62.8298   86.8443   12.3463 N.2     1  UNL1       -0.0020
      3 C          62.5727   85.5262   11.6781 C.2     1  UNL1        0.3340
      4 C          61.7841   85.4727   10.4033 C.2     1  UNL1        0.0879
      5 C          61.2525   86.7373    9.7966 C.2     1  UNL1        0.0161
      6 C          60.4482   86.9951    8.5571 C.2     1  UNL1       -0.0100
      7 C          59.9681   85.9575    7.5860 C.3     1  UNL1        0.0320
      8 C          60.2082   88.4725    8.4591 C.2     1  UNL1        0.0509
      9 C          59.4459   89.1718    7.3727 C.3     1  UNL1        0.0513
     10 N          60.8642   89.1279    9.6381 N.2     1  UNL1       -0.2602
     11 C          61.5097   88.0554   10.4647 C.3     1  UNL1        0.2298
     12 N          63.1042   84.2614   12.2849 N.am    1  UNL1       -0.1358
     13 C          63.9412   83.3284   11.4609 C.3     1  UNL1        0.2422
     14 C          64.4727   82.0637   12.0675 C.3     1  UNL1        0.1940
     15 O          64.1673   81.7320   13.4982 O.3     1  UNL1       -0.3382
     16 C          63.3304   82.6651   14.3222 C.3     1  UNL1        0.2554
     17 C          62.7988   83.9298   13.7155 C.2     1  UNL1        0.3436
     18 O          61.9619   84.8629   14.5395 O.2     1  UNL1       -0.2440
     19 N          62.5554   89.4271   12.4077 N.pl3   1  UNL1       -0.2166
     20 H          62.0902   89.6535   13.2452 H       1  UNL1        0.2923
     21 C          63.5214   90.4003   11.7996 C.3     1  UNL1        0.2258
     22 C          65.0333   92.7448   10.6962 C.3     1  UNL1        0.0308
     23 C          65.2304   92.3301   12.1242 C.ar    1  UNL1       -0.0223
     24 C          66.1835   93.0876   13.0005 C.ar    1  UNL1       -0.0045
     25 C          66.3805   92.6729   14.4285 C.ar    1  UNL1       -0.0007
     26 C          65.6246   91.5006   14.9802 C.ar    1  UNL1       -0.0045
     27 C          64.6716   90.7431   14.1039 C.ar    1  UNL1       -0.0223
     28 C          63.9156   89.5709   14.6556 C.3     1  UNL1        0.0308
     29 C          64.4745   91.1578   12.6759 C.ar    1  UNL1        0.0162
@<TRIPOS>BOND
     1    22    23    1
     2    23    24   ar
     3    24    25   ar
     4    25    26   ar
     5    26    27   ar
     6    27    28    1
     7    27    29   ar
     8    29    21    1
     9    21    19    1
    10    19     1    1
    11     1     2    2
    12     2     3    1
    13     3    12    1
    14    12    13    1
    15    13    14    1
    16    14    15    1
    17    15    16    1
    18    16    17    1
    19    17    18    2
    20     3     4    2
    21     4     5    1
    22     5     6    2
    23     6     7    1
    24     6     8    1
    25     8     9    1
    26     8    10    2
    27    10    11    1
    28    29    23   ar
    29    11     1    1
    30    17    12   am
    31    11     5    1
    32    19    20    1
@<TRIPOS>MOLECULE
*****
 29 32 0 0 0
SMALL
GASTEIGER

@<TRIPOS>ATOM
      1 C          63.4023   86.7886   13.2717 C.2     1  UNL1        0.3279
      2 N          64.0076   87.9538   13.9967 N.2     1  UNL1       -0.0020
      3 C          63.8379   89.3431   13.4571 C.2     1  UNL1        0.3340
      4 C          63.0630   89.5670   12.1925 C.2     1  UNL1        0.0879
      5 C          62.4576   88.4017   11.4675 C.2     1  UNL1        0.0161
      6 C          61.6473   88.3141   10.2082 C.2     1  UNL1       -0.0100
      7 C          61.2397   89.4674    9.3401 C.3     1  UNL1        0.0320
      8 C          61.3161   86.8707    9.9696 C.2     1  UNL1        0.0509
      9 C          60.5192   86.3272    8.8209 C.3     1  UNL1        0.0513
     10 N          61.9218   86.0662   11.0814 N.2     1  UNL1       -0.2602
     11 C          62.6273   87.0125   12.0071 C.3     1  UNL1        0.2298
     12 N          64.4433   90.5084   14.1821 N.am    1  UNL1       -0.1358
     13 C          65.4920   91.3458   13.5121 C.3     1  UNL1        0.2422
     14 C          66.0974   92.5112   14.2370 C.3     1  UNL1        0.1940
     15 O          65.6540   92.8391   15.6320 O.3     1  UNL1       -0.3382
     16 C          64.6052   92.0017   16.3020 C.3     1  UNL1        0.2554
     17 C          63.9999   90.8363   15.5770 C.2     1  UNL1        0.3436
     18 O          62.9512   89.9989   16.2470 O.2     1  UNL1       -0.2440
     19 N          63.5719   85.3993   13.8114 N.pl3   1  UNL1       -0.2166
     20 H          63.2650   85.1839   14.7216 H       1  UNL1        0.2923
     21 C          64.2091   84.3382   12.9640 C.3     1  UNL1        0.2258
     22 C          64.3015   82.8135   10.3820 C.3     1  UNL1        0.0308
     23 C          63.6338   82.2136   11.5837 C.ar    1  UNL1       -0.0223
     24 C          63.0123   80.8513   11.4945 C.ar    1  UNL1       -0.0045
     25 C          62.3446   80.2514   12.6963 C.ar    1  UNL1       -0.0007
     26 C          62.2984   81.0138   13.9873 C.ar    1  UNL1       -0.0045
     27 C          62.9199   82.3760   14.0766 C.ar    1  UNL1       -0.0223
     28 C          62.8737   83.1383   15.3676 C.3     1  UNL1        0.0308
     29 C          63.5876   82.9760   12.8747 C.ar    1  UNL1        0.0162
@<TRIPOS>BOND
     1    22    23    1
     2    23    24   ar
     3    24    25   ar
     4    25    26   ar
     5    26    27   ar
     6    27    28    1
     7    27    29   ar
     8    29    21    1
     9    21    19    1
    10    19     1    1
    11     1     2    2
    12     2     3    1
    13     3    12    1
    14    12    13    1
    15    13    14    1
    16    14    15    1
    17    15    16    1
    18    16    17    1
    19    17    18    2
    20     3     4    2
    21     4     5    1
    22     5     6    2
    23     6     7    1
    24     6     8    1
    25     8     9    1
    26     8    10    2
    27    10    11    1
    28    29    23   ar
    29    11     1    1
    30    17    12   am
    31    11     5    1
    32    19    20    1
@<TRIPOS>MOLECULE
*****
 29 32 0 0 0
SMALL
GASTEIGER

@<TRIPOS>ATOM
      1 C          63.3882   86.7878   13.2444 C.2     1  UNL1        0.3279
      2 N          63.9952   87.9523   13.9691 N.2     1  UNL1       -0.0020
      3 C          63.8224   89.3423   13.4325 C.2     1  UNL1        0.3340
      4 C          63.0426   89.5678   12.1711 C.2     1  UNL1        0.0879
      5 C          62.4356   88.4032   11.4464 C.2     1  UNL1        0.0161
      6 C          61.6207   88.3171   10.1900 C.2     1  UNL1       -0.0100
      7 C          61.2090   89.4715    9.3253 C.3     1  UNL1        0.0320
      8 C          61.2898   86.8738    9.9501 C.2     1  UNL1        0.0509
      9 C          60.4890   86.3316    8.8034 C.3     1  UNL1        0.0513
     10 N          61.9002   86.0679   11.0582 N.2     1  UNL1       -0.2602
     11 C          62.6083   87.0132   11.9830 C.3     1  UNL1        0.2298
     12 N          64.4295   90.5069   14.1572 N.am    1  UNL1       -0.1358
     13 C          65.4835   91.3392   13.4892 C.3     1  UNL1        0.2422
     14 C          66.0906   92.5038   14.2138 C.3     1  UNL1        0.1940
     15 O          65.6436   92.8361   15.6067 O.3     1  UNL1       -0.3382
     16 C          64.5896   92.0038   16.2747 C.3     1  UNL1        0.2554
     17 C          63.9825   90.8392   15.5500 C.2     1  UNL1        0.3436
     18 O          62.9285   90.0069   16.2180 O.2     1  UNL1       -0.2440
     19 N          63.5609   85.3977   13.7810 N.pl3   1  UNL1       -0.2166
     20 H          63.2467   85.1774   14.6876 H       1  UNL1        0.2923
     21 C          64.2124   84.3432   12.9362 C.3     1  UNL1        0.2258
     22 C          62.9262   83.0945   15.3417 C.3     1  UNL1        0.0308
     23 C          62.9556   82.3540   14.0376 C.ar    1  UNL1       -0.0223
     24 C          62.3418   80.9890   13.9362 C.ar    1  UNL1       -0.0045
     25 C          62.3712   80.2484   12.6321 C.ar    1  UNL1       -0.0007
     26 C          63.0143   80.8728   11.4294 C.ar    1  UNL1       -0.0045
     27 C          63.6281   82.2377   11.5307 C.ar    1  UNL1       -0.0223
     28 C          64.2712   82.8620   10.3280 C.3     1  UNL1        0.0308
     29 C          63.5987   82.9783   12.8349 C.ar    1  UNL1        0.0162
@<TRIPOS>BOND
     1    22    23    1
     2    23    24   ar
     3    24    25   ar
     4    25    26   ar
     5    26    27   ar
     6    27    28    1
     7    27    29   ar
     8    29    21    1
     9    21    19    1
    10    19     1    1
    11     1     2    2
    12     2     3    1
    13     3    12    1
    14    12    13    1
    15    13    14    1
    16    14    15    1
    17    15    16    1
    18    16    17    1
    19    17    18    2
    20     3     4    2
    21     4     5    1
    22     5     6    2
    23     6     7    1
    24     6     8    1
    25     8     9    1
    26     8    10    2
    27    10    11    1
    28    29    23   ar
    29    11     1    1
    30    17    12   am
    31    11     5    1
    32    19    20    1
@<TRIPOS>MOLECULE
*****
 29 32 0 0 0
SMALL
GASTEIGER

@<TRIPOS>ATOM
      1 C          62.2328   86.8930   11.9774 C.2     1  UNL1        0.3279
      2 N          63.0625   87.9834   12.5876 N.2     1  UNL1       -0.0020
      3 C          63.0724   89.3516   11.9729 C.2     1  UNL1        0.3340
      4 C          62.2524   89.6293   10.7479 C.2     1  UNL1        0.0879
      5 C          61.4227   88.5389   10.1377 C.2     1  UNL1        0.0161
      6 C          60.5199   88.5154    8.9400 C.2     1  UNL1       -0.0100
      7 C          60.2349   89.6716    8.0280 C.3     1  UNL1        0.0320
      8 C          59.9521   87.1326    8.8146 C.2     1  UNL1        0.0509
      9 C          58.9996   86.6634    7.7550 C.3     1  UNL1        0.0513
     10 N          60.5040   86.3016    9.9347 N.2     1  UNL1       -0.2602
     11 C          61.4129   87.1707   10.7524 C.3     1  UNL1        0.2298
     12 N          63.9021   90.4421   12.5831 N.am    1  UNL1       -0.1358
     13 C          64.4795   91.5203   11.7147 C.3     1  UNL1        0.2422
     14 C          65.3093   92.6108   12.3248 C.3     1  UNL1        0.1940
     15 O          65.5617   92.6231   13.8035 O.3     1  UNL1       -0.3382
     16 C          64.9843   91.5449   14.6719 C.3     1  UNL1        0.2554
     17 C          64.1545   90.4544   14.0616 C.2     1  UNL1        0.3436
     18 O          63.5771   89.3762   14.9300 O.2     1  UNL1       -0.2440
     19 N          62.2229   85.5247   12.5922 N.pl3   1  UNL1       -0.2166
     20 H          61.4376   85.2195   13.1014 H       1  UNL1        0.2923
     21 C          63.4097   84.6215   12.4310 C.3     1  UNL1        0.2258
     22 C          63.9735   83.3588    9.7688 C.3     1  UNL1        0.0308
     23 C          63.4917   82.5155   10.9118 C.ar    1  UNL1       -0.0223
     24 C          63.2918   81.0408   10.7238 C.ar    1  UNL1       -0.0045
     25 C          62.8101   80.1975   11.8669 C.ar    1  UNL1       -0.0007
     26 C          62.5282   80.8288   13.1981 C.ar    1  UNL1       -0.0045
     27 C          62.7280   82.3035   13.3861 C.ar    1  UNL1       -0.0223
     28 C          62.4461   82.9349   14.7172 C.3     1  UNL1        0.0308
     29 C          63.2098   83.1469   12.2430 C.ar    1  UNL1        0.0162
@<TRIPOS>BOND
     1    22    23    1
     2    23    24   ar
     3    24    25   ar
     4    25    26   ar
     5    26    27   ar
     6    27    28    1
     7    27    29   ar
     8    29    21    1
     9    21    19    1
    10    19     1    1
    11     1     2    2
    12     2     3    1
    13     3    12    1
    14    12    13    1
    15    13    14    1
    16    14    15    1
    17    15    16    1
    18    16    17    1
    19    17    18    2
    20     3     4    2
    21     4     5    1
    22     5     6    2
    23     6     7    1
    24     6     8    1
    25     8     9    1
    26     8    10    2
    27    10    11    1
    28    29    23   ar
    29    11     1    1
    30    17    12   am
    31    11     5    1
    32    19    20    1
@<TRIPOS>MOLECULE
*****
 29 32 0 0 0
SMALL
GASTEIGER

@<TRIPOS>ATOM
      1 C          62.2645   86.8559   12.0026 C.2     1  UNL1        0.3279
      2 N          63.0882   87.9505   12.6135 N.2     1  UNL1       -0.0020
      3 C          63.0912   89.3188   11.9989 C.2     1  UNL1        0.3340
      4 C          62.2705   89.5924   10.7735 C.2     1  UNL1        0.0879
      5 C          61.4469   88.4978   10.1627 C.2     1  UNL1        0.0161
      6 C          60.5449   88.4697    8.9645 C.2     1  UNL1       -0.0100
      7 C          60.2544   89.6246    8.0524 C.3     1  UNL1        0.0320
      8 C          59.9844   87.0841    8.8385 C.2     1  UNL1        0.0509
      9 C          59.0350   86.6100    7.7783 C.3     1  UNL1        0.0513
     10 N          60.5400   86.2557    9.9588 N.2     1  UNL1       -0.2602
     11 C          61.4439   87.1295   10.7772 C.3     1  UNL1        0.2298
     12 N          63.9149   90.4136   12.6098 N.am    1  UNL1       -0.1358
     13 C          64.4554   91.5156   11.7476 C.3     1  UNL1        0.2422
     14 C          65.2791   92.6103   12.3584 C.3     1  UNL1        0.1940
     15 O          65.5623   92.6031   13.8315 O.3     1  UNL1       -0.3382
     16 C          65.0217   91.5011   14.6937 C.3     1  UNL1        0.2554
     17 C          64.1980   90.4063   14.0828 C.2     1  UNL1        0.3436
     18 O          63.6575   89.3043   14.9450 O.2     1  UNL1       -0.2440
     19 N          62.2615   85.4875   12.6172 N.pl3   1  UNL1       -0.2166
     20 H          61.4870   85.1867   13.1453 H       1  UNL1        0.2923
     21 C          63.4386   84.5773   12.4270 C.3     1  UNL1        0.2258
     22 C          62.3701   82.9076   14.6788 C.3     1  UNL1        0.0308
     23 C          62.6906   82.2705   13.3592 C.ar    1  UNL1       -0.0223
     24 C          62.4769   80.7984   13.1654 C.ar    1  UNL1       -0.0045
     25 C          62.7975   80.1613   11.8459 C.ar    1  UNL1       -0.0007
     26 C          63.3317   80.9962   10.7200 C.ar    1  UNL1       -0.0045
     27 C          63.5454   82.4682   10.9137 C.ar    1  UNL1       -0.0223
     28 C          64.0796   83.3030    9.7878 C.3     1  UNL1        0.0308
     29 C          63.2249   83.1053   12.2333 C.ar    1  UNL1        0.0162
@<TRIPOS>BOND
     1    22    23    1
     2    23    24   ar
     3    24    25   ar
     4    25    26   ar
     5    26    27   ar
     6    27    28    1
     7    27    29   ar
     8    29    21    1
     9    21    19    1
    10    19     1    1
    11     1     2    2
    12     2     3    1
    13     3    12    1
    14    12    13    1
    15    13    14    1
    16    14    15    1
    17    15    16    1
    18    16    17    1
    19    17    18    2
    20     3     4    2
    21     4     5    1
    22     5     6    2
    23     6     7    1
    24     6     8    1
    25     8     9    1
    26     8    10    2
    27    10    11    1
    28    29    23   ar
    29    11     1    1
    30    17    12   am
    31    11     5    1
    32    19    20    1
