@<TRIPOS>MOLECULE
*****
 29 33 0 0 0
SMALL
GASTEIGER

@<TRIPOS>ATOM
      1 C          61.5351   87.6278   10.4417 C.ar    1  UNL1        0.0718
      2 C          61.9982   86.3727   11.1201 C.ar    1  UNL1        0.1049
      3 N          62.8359   86.7657   12.3007 N.ar    1  UNL1       -0.2242
      4 N          63.5559   85.9531   13.3356 N.ar    1  UNL1       -0.1422
      5 C          64.3307   86.6386   14.4218 C.ar    1  UNL1        0.2211
      6 N          64.3853   88.1367   14.4731 N.ar    1  UNL1       -0.2060
      7 C          63.6653   88.9493   13.4382 C.ar    1  UNL1        0.1513
      8 C          62.8906   88.2639   12.3520 C.ar    1  UNL1        0.1106
      9 C          62.0867   88.7966   11.2031 C.ar    1  UNL1        0.0040
     10 C          58.9126   89.4808    6.2501 C.3     1  UNL1        0.0967
     11 C          59.4666   88.5530    7.2904 C.ar    1  UNL1        0.2270
     12 N          59.2214   87.0756    7.3746 N.ar    1  UNL1       -0.1114
     13 N          59.9664   86.5492    8.5653 N.ar    1  UNL1       -0.1072
     14 C          60.6721   87.7013    9.2171 C.ar    1  UNL1        0.2508
     15 O          60.3632   88.9397    8.4291 O.2     1  UNL1       -0.4195
     16 C          61.8720   90.2441   10.8734 C.3     1  UNL1        0.0241
     17 C          60.5732   90.9084   11.2229 C.3     1  UNL1        0.0047
     18 C          62.9560   91.0275   10.1944 C.3     1  UNL1        0.0047
     19 N          63.7200   90.4475   13.4895 N.pl3   1  UNL1       -0.2967
     20 H          62.8937   90.9738   13.3927 H       1  UNL1        0.1535
     21 C          65.0337   91.1436   13.6881 C.2     1  UNL1        0.0785
     22 C          65.7566   91.7311   12.5123 C.2     1  UNL1        0.2463
     23 N          67.0703   92.4273   12.7109 N.2     1  UNL1       -0.0298
     24 C          67.6612   92.5360   14.0854 C.2     1  UNL1        0.3721
     25 N          68.9303   93.1596   14.5858 N.2     1  UNL1       -0.0308
     26 C          68.9919   92.9575   16.0708 C.2     1  UNL1        0.2359
     27 C          67.7607   92.2091   16.4882 C.2     1  UNL1        0.0542
     28 C          66.9384   91.9486   15.2611 C.2     1  UNL1        0.0758
     29 C          65.6246   91.2524   15.0625 C.3     1  UNL1        0.0794
@<TRIPOS>BOND
     1    10    11    1
     2    11    12   ar
     3    12    13   ar
     4    13    14   ar
     5    14     1    1
     6     1     2   ar
     7     2     3   ar
     8     3     4   ar
     9     4     5   ar
    10     5     6   ar
    11     6     7   ar
    12     7    19    1
    13    19    21    1
    14    21    22    2
    15    22    23    1
    16    23    24    2
    17    24    25    1
    18    25    26    2
    19    26    27    1
    20    27    28    2
    21    28    29    1
    22     7     8   ar
    23     8     9   ar
    24     9    16    1
    25    16    17    1
    26    16    18    1
    27    14    15   ar
    28    15    11   ar
    29     9     1   ar
    30     8     3   ar
    31    29    21    1
    32    28    24    1
    33    19    20    1
@<TRIPOS>MOLECULE
*****
 29 33 0 0 0
SMALL
GASTEIGER

@<TRIPOS>ATOM
      1 C          62.3051   86.1202   10.5678 C.ar    1  UNL1        0.0718
      2 C          62.9420   85.1173   11.4834 C.ar    1  UNL1        0.1049
      3 N          63.4004   85.8398   12.7154 N.ar    1  UNL1       -0.2242
      4 N          64.0941   85.3652   13.9577 N.ar    1  UNL1       -0.1422
      5 C          64.4342   86.3400   15.0458 C.ar    1  UNL1        0.2211
      6 N          64.0806   87.7896   14.8915 N.ar    1  UNL1       -0.2060
      7 C          63.3870   88.2643   13.6492 C.ar    1  UNL1        0.1513
      8 C          63.0468   87.2894   12.5611 C.ar    1  UNL1        0.1106
      9 C          62.3699   87.4626   11.2338 C.ar    1  UNL1        0.0040
     10 C          61.6966   84.4342    5.6011 C.3     1  UNL1        0.0967
     11 C          61.4285   85.0564    6.9393 C.ar    1  UNL1        0.2270
     12 N          60.1509   85.7175    7.3642 N.ar    1  UNL1       -0.1114
     13 N          60.3237   86.1965    8.7751 N.ar    1  UNL1       -0.1072
     14 C          61.7082   85.8314    9.2223 C.ar    1  UNL1        0.2508
     15 O          62.3910   85.1268    8.0877 O.2     1  UNL1       -0.4195
     16 C          61.8492   88.7520   10.6713 C.3     1  UNL1        0.0241
     17 C          60.4261   89.1574   10.9178 C.3     1  UNL1        0.0047
     18 C          62.7514   89.6360    9.8624 C.3     1  UNL1        0.0047
     19 N          63.0334   89.7138   13.4949 N.pl3   1  UNL1       -0.2967
     20 H          62.0979   89.9785   13.3398 H       1  UNL1        0.1535
     21 C          64.1051   90.7600   13.5769 C.2     1  UNL1        0.0785
     22 C          64.4279   91.5988   12.3758 C.2     1  UNL1        0.2463
     23 N          65.4996   92.6450   12.4578 N.2     1  UNL1       -0.0298
     24 C          66.2486   92.8526   13.7408 C.2     1  UNL1        0.3721
     25 N          67.3480   93.8002   14.1191 N.2     1  UNL1       -0.0308
     26 C          67.7047   93.5473   15.5539 C.2     1  UNL1        0.2359
     27 C          66.8257   92.4432   16.0624 C.2     1  UNL1        0.0542
     28 C          65.9258   92.0140   14.9418 C.2     1  UNL1        0.0758
     29 C          64.8540   90.9676   14.8598 C.3     1  UNL1        0.0794
@<TRIPOS>BOND
     1    10    11    1
     2    11    12   ar
     3    12    13   ar
     4    13    14   ar
     5    14     1    1
     6     1     2   ar
     7     2     3   ar
     8     3     4   ar
     9     4     5   ar
    10     5     6   ar
    11     6     7   ar
    12     7    19    1
    13    19    21    1
    14    21    22    2
    15    22    23    1
    16    23    24    2
    17    24    25    1
    18    25    26    2
    19    26    27    1
    20    27    28    2
    21    28    29    1
    22     7     8   ar
    23     8     9   ar
    24     9    16    1
    25    16    17    1
    26    16    18    1
    27    14    15   ar
    28    15    11   ar
    29     9     1   ar
    30     8     3   ar
    31    29    21    1
    32    28    24    1
    33    19    20    1
@<TRIPOS>MOLECULE
*****
 29 33 0 0 0
SMALL
GASTEIGER

@<TRIPOS>ATOM
      1 C          62.3196   86.0489   10.5419 C.ar    1  UNL1        0.0718
      2 C          63.0173   85.0598   11.4278 C.ar    1  UNL1        0.1049
      3 N          63.4370   85.7731   12.6788 N.ar    1  UNL1       -0.2242
      4 N          64.1617   85.3053   13.9059 N.ar    1  UNL1       -0.1422
      5 C          64.4480   86.2675   15.0204 C.ar    1  UNL1        0.2211
      6 N          64.0096   87.6976   14.9077 N.ar    1  UNL1       -0.2060
      7 C          63.2849   88.1654   13.6806 C.ar    1  UNL1        0.1513
      8 C          62.9986   87.2032   12.5661 C.ar    1  UNL1        0.1106
      9 C          62.3080   87.3736   11.2455 C.ar    1  UNL1        0.0040
     10 C          61.7619   84.3808    5.5633 C.3     1  UNL1        0.0967
     11 C          61.4795   84.9967    6.9015 C.ar    1  UNL1        0.2270
     12 N          60.1958   85.6518    7.3174 N.ar    1  UNL1       -0.1114
     13 N          60.3543   86.1257    8.7318 N.ar    1  UNL1       -0.1072
     14 C          61.7359   85.7635    9.1900 C.ar    1  UNL1        0.2508
     15 O          62.4313   85.0658    8.0588 O.2     1  UNL1       -0.4195
     16 C          61.7107   88.6455   10.7206 C.3     1  UNL1        0.0241
     17 C          60.3387   89.0661   11.1575 C.3     1  UNL1        0.0047
     18 C          62.4853   89.4969    9.7589 C.3     1  UNL1        0.0047
     19 N          62.8465   89.5955   13.5679 N.pl3   1  UNL1       -0.2967
     20 H          61.8908   89.8237   13.6298 H       1  UNL1        0.1535
     21 C          63.8642   90.6778   13.3611 C.2     1  UNL1        0.0785
     22 C          64.6788   91.1728   14.5194 C.2     1  UNL1        0.2463
     23 N          65.6964   92.2551   14.3125 N.2     1  UNL1       -0.0298
     24 C          65.8996   92.8426   12.9474 C.2     1  UNL1        0.3721
     25 N          66.8217   93.9124   12.4421 N.2     1  UNL1       -0.0308
     26 C          66.5770   94.0787   10.9716 C.2     1  UNL1        0.2359
     27 C          65.5037   93.1117   10.5680 C.2     1  UNL1        0.0542
     28 C          65.0851   92.3477   11.7891 C.2     1  UNL1        0.0758
     29 C          64.0673   91.2653   11.9959 C.3     1  UNL1        0.0794
@<TRIPOS>BOND
     1    10    11    1
     2    11    12   ar
     3    12    13   ar
     4    13    14   ar
     5    14     1    1
     6     1     2   ar
     7     2     3   ar
     8     3     4   ar
     9     4     5   ar
    10     5     6   ar
    11     6     7   ar
    12     7    19    1
    13    19    21    1
    14    21    22    2
    15    22    23    1
    16    23    24    2
    17    24    25    1
    18    25    26    2
    19    26    27    1
    20    27    28    2
    21    28    29    1
    22     7     8   ar
    23     8     9   ar
    24     9    16    1
    25    16    17    1
    26    16    18    1
    27    14    15   ar
    28    15    11   ar
    29     9     1   ar
    30     8     3   ar
    31    29    21    1
    32    28    24    1
    33    19    20    1
@<TRIPOS>MOLECULE
*****
 29 33 0 0 0
SMALL
GASTEIGER

@<TRIPOS>ATOM
      1 C          64.0517   90.1878   13.5068 C.ar    1  UNL1        0.0718
      2 C          63.5954   90.5678   12.1294 C.ar    1  UNL1        0.1049
      3 N          63.0360   89.3413   11.4715 N.ar    1  UNL1       -0.2242
      4 N          62.4403   89.1137   10.1139 N.ar    1  UNL1       -0.1422
      5 C          61.9550   87.7481    9.7272 C.ar    1  UNL1        0.2211
      6 N          62.0656   86.6101   10.6981 N.ar    1  UNL1       -0.2060
      7 C          62.6613   86.8376   12.0557 C.ar    1  UNL1        0.1513
      8 C          63.1466   88.2033   12.4424 C.ar    1  UNL1        0.1106
      9 C          63.7743   88.7264   13.7003 C.ar    1  UNL1        0.0040
     10 C          67.5691   93.1543   16.0971 C.3     1  UNL1        0.0967
     11 C          66.2926   92.4712   15.7046 C.ar    1  UNL1        0.2270
     12 N          64.9799   92.5752   16.4231 N.ar    1  UNL1       -0.1114
     13 N          63.9808   91.7325   15.6872 N.ar    1  UNL1       -0.1072
     14 C          64.6758   91.1077   14.5140 C.ar    1  UNL1        0.2508
     15 O          66.1046   91.5642   14.5247 O.2     1  UNL1       -0.4195
     16 C          64.0723   87.9283   14.9349 C.3     1  UNL1        0.0241
     17 C          63.4011   88.2735   16.2313 C.3     1  UNL1        0.0047
     18 C          65.0413   86.7851   14.8733 C.3     1  UNL1        0.0047
     19 N          62.7719   85.6996   13.0266 N.pl3   1  UNL1       -0.2967
     20 H          62.7883   85.8782   13.9946 H       1  UNL1        0.1535
     21 C          62.8574   84.2894   12.5226 C.2     1  UNL1        0.0785
     22 C          63.3860   84.0158   11.1457 C.2     1  UNL1        0.2463
     23 N          63.4715   82.6056   10.6418 N.2     1  UNL1       -0.0298
     24 C          63.0285   81.4690   11.5147 C.2     1  UNL1        0.3721
     25 N          62.9955   79.9860   11.2918 N.2     1  UNL1       -0.0308
     26 C          62.4466   79.3431   12.5309 C.2     1  UNL1        0.2359
     27 C          62.1403   80.4288   13.5196 C.2     1  UNL1        0.0542
     28 C          62.4999   81.7426   12.8915 C.2     1  UNL1        0.0758
     29 C          62.4144   83.1528   13.3955 C.3     1  UNL1        0.0794
@<TRIPOS>BOND
     1    10    11    1
     2    11    12   ar
     3    12    13   ar
     4    13    14   ar
     5    14     1    1
     6     1     2   ar
     7     2     3   ar
     8     3     4   ar
     9     4     5   ar
    10     5     6   ar
    11     6     7   ar
    12     7    19    1
    13    19    21    1
    14    21    22    2
    15    22    23    1
    16    23    24    2
    17    24    25    1
    18    25    26    2
    19    26    27    1
    20    27    28    2
    21    28    29    1
    22     7     8   ar
    23     8     9   ar
    24     9    16    1
    25    16    17    1
    26    16    18    1
    27    14    15   ar
    28    15    11   ar
    29     9     1   ar
    30     8     3   ar
    31    29    21    1
    32    28    24    1
    33    19    20    1
@<TRIPOS>MOLECULE
*****
 29 33 0 0 0
SMALL
GASTEIGER

@<TRIPOS>ATOM
      1 C          62.8385   84.9807   11.7075 C.ar    1  UNL1        0.0718
      2 C          62.4058   85.7999   10.5277 C.ar    1  UNL1        0.1049
      3 N          62.4983   87.2475   10.9095 N.ar    1  UNL1       -0.2242
      4 N          62.1998   88.5066   10.1510 N.ar    1  UNL1       -0.1422
      5 C          62.3912   89.8413   10.8081 C.ar    1  UNL1        0.2211
      6 N          62.8811   89.9169   12.2239 N.ar    1  UNL1       -0.2060
      7 C          63.1796   88.6578   12.9824 C.ar    1  UNL1        0.1513
      8 C          62.9882   87.3231   12.3252 C.ar    1  UNL1        0.1106
      9 C          63.1984   85.9221   12.8184 C.ar    1  UNL1        0.0040
     10 C          62.2694   79.9910   13.3385 C.3     1  UNL1        0.0967
     11 C          62.6388   81.1896   12.5157 C.ar    1  UNL1        0.2270
     12 N          63.3523   81.1675   11.1965 N.ar    1  UNL1       -0.1114
     13 N          63.5139   82.5850   10.7331 N.ar    1  UNL1       -0.1072
     14 C          62.9003   83.4831   11.7660 C.ar    1  UNL1        0.2508
     15 O          62.3595   82.6207   12.8677 O.2     1  UNL1       -0.4195
     16 C          63.6835   85.5313   14.1829 C.3     1  UNL1        0.0241
     17 C          62.7187   84.9867   15.1943 C.3     1  UNL1        0.0047
     18 C          65.1331   85.6849   14.5362 C.3     1  UNL1        0.0047
     19 N          63.6695   88.7333   14.3981 N.pl3   1  UNL1       -0.2967
     20 H          63.5077   87.9839   15.0157 H       1  UNL1        0.1535
     21 C          64.4059   89.9508   14.8730 C.2     1  UNL1        0.0785
     22 C          63.7921   90.8405   15.9131 C.2     1  UNL1        0.2463
     23 N          64.5285   92.0579   16.3879 N.2     1  UNL1       -0.0298
     24 C          65.8787   92.3857   15.8227 C.2     1  UNL1        0.3721
     25 N          66.8348   93.5091   16.0945 N.2     1  UNL1       -0.0308
     26 C          68.0394   93.3138   15.2224 C.2     1  UNL1        0.2359
     27 C          67.8279   92.0696   14.4116 C.2     1  UNL1        0.0542
     28 C          66.4925   91.4961   14.7827 C.2     1  UNL1        0.0758
     29 C          65.7561   90.2786   14.3078 C.3     1  UNL1        0.0794
@<TRIPOS>BOND
     1    10    11    1
     2    11    12   ar
     3    12    13   ar
     4    13    14   ar
     5    14     1    1
     6     1     2   ar
     7     2     3   ar
     8     3     4   ar
     9     4     5   ar
    10     5     6   ar
    11     6     7   ar
    12     7    19    1
    13    19    21    1
    14    21    22    2
    15    22    23    1
    16    23    24    2
    17    24    25    1
    18    25    26    2
    19    26    27    1
    20    27    28    2
    21    28    29    1
    22     7     8   ar
    23     8     9   ar
    24     9    16    1
    25    16    17    1
    26    16    18    1
    27    14    15   ar
    28    15    11   ar
    29     9     1   ar
    30     8     3   ar
    31    29    21    1
    32    28    24    1
    33    19    20    1
@<TRIPOS>MOLECULE
*****
 29 33 0 0 0
SMALL
GASTEIGER

@<TRIPOS>ATOM
      1 C          64.6237   90.9531   13.4507 C.ar    1  UNL1        0.0718
      2 C          64.2877   91.5769   12.1286 C.ar    1  UNL1        0.1049
      3 N          63.3989   90.6278   11.3807 N.ar    1  UNL1       -0.2242
      4 N          62.7562   90.7093   10.0279 N.ar    1  UNL1       -0.1422
      5 C          61.9003   89.5805    9.5349 C.ar    1  UNL1        0.2211
      6 N          61.6870   88.3701   10.3949 N.ar    1  UNL1       -0.2060
      7 C          62.3297   88.2886   11.7477 C.ar    1  UNL1        0.1513
      8 C          63.1856   89.4174   12.2407 C.ar    1  UNL1        0.1106
      9 C          63.9426   89.6185   13.5199 C.ar    1  UNL1        0.0040
     10 C          68.8532   92.5340   16.1881 C.3     1  UNL1        0.0967
     11 C          67.4330   92.2845   15.7746 C.ar    1  UNL1        0.2270
     12 N          66.2079   92.6922   16.5380 N.ar    1  UNL1       -0.1114
     13 N          65.0064   92.2431   15.7603 N.ar    1  UNL1       -0.1072
     14 C          65.4890   91.5578   14.5164 C.ar    1  UNL1        0.2508
     15 O          66.9887   91.5834   14.5252 O.2     1  UNL1       -0.4195
     16 C          64.0071   88.6542   14.6671 C.3     1  UNL1        0.0241
     17 C          64.6835   87.3265   14.4937 C.3     1  UNL1        0.0047
     18 C          63.3953   89.0174   15.9875 C.3     1  UNL1        0.0047
     19 N          62.1164   87.0782   12.6077 N.pl3   1  UNL1       -0.2967
     20 H          61.7618   87.1792   13.5205 H       1  UNL1        0.1535
     21 C          62.4433   85.7139   12.0768 C.2     1  UNL1        0.0785
     22 C          62.8146   85.5398   10.6339 C.2     1  UNL1        0.2463
     23 N          63.1415   84.1755   10.1030 N.2     1  UNL1       -0.0298
     24 C          63.0972   82.9854   11.0149 C.2     1  UNL1        0.3721
     25 N          63.3671   81.5290   10.7782 N.2     1  UNL1       -0.0308
     26 C          63.1626   80.8030   12.0748 C.2     1  UNL1        0.2359
     27 C          62.7664   81.8108   13.1128 C.2     1  UNL1        0.0542
     28 C          62.7259   83.1595   12.4577 C.2     1  UNL1        0.0758
     29 C          62.3990   84.5238   12.9887 C.3     1  UNL1        0.0794
@<TRIPOS>BOND
     1    10    11    1
     2    11    12   ar
     3    12    13   ar
     4    13    14   ar
     5    14     1    1
     6     1     2   ar
     7     2     3   ar
     8     3     4   ar
     9     4     5   ar
    10     5     6   ar
    11     6     7   ar
    12     7    19    1
    13    19    21    1
    14    21    22    2
    15    22    23    1
    16    23    24    2
    17    24    25    1
    18    25    26    2
    19    26    27    1
    20    27    28    2
    21    28    29    1
    22     7     8   ar
    23     8     9   ar
    24     9    16    1
    25    16    17    1
    26    16    18    1
    27    14    15   ar
    28    15    11   ar
    29     9     1   ar
    30     8     3   ar
    31    29    21    1
    32    28    24    1
    33    19    20    1
@<TRIPOS>MOLECULE
*****
 29 33 0 0 0
SMALL
GASTEIGER

@<TRIPOS>ATOM
      1 C          62.8447   84.8874   12.6214 C.ar    1  UNL1        0.0718
      2 C          62.1546   85.2958   11.3537 C.ar    1  UNL1        0.1049
      3 N          62.2773   86.7846   11.2181 N.ar    1  UNL1       -0.2242
      4 N          61.7905   87.7405   10.1696 N.ar    1  UNL1       -0.1422
      5 C          62.0697   89.2080   10.3050 C.ar    1  UNL1        0.2211
      6 N          62.8357   89.7197   11.4888 N.ar    1  UNL1       -0.2060
      7 C          63.3224   88.7639   12.5373 C.ar    1  UNL1        0.1513
      8 C          63.0432   87.2963   12.4020 C.ar    1  UNL1        0.1106
      9 C          63.3939   86.1238   13.2692 C.ar    1  UNL1        0.0040
     10 C          62.3410   79.6572   13.1432 C.3     1  UNL1        0.0967
     11 C          62.7331   81.0841   13.3885 C.ar    1  UNL1        0.2270
     12 N          63.5649   81.5860   14.5314 N.ar    1  UNL1       -0.1114
     13 N          63.7080   83.0718   14.3831 N.ar    1  UNL1       -0.1072
     14 C          62.9645   83.4882   13.1486 C.ar    1  UNL1        0.2508
     15 O          62.3620   82.2597   12.5339 O.2     1  UNL1       -0.4195
     16 C          64.1594   86.1781   14.5580 C.3     1  UNL1        0.0241
     17 C          63.4791   86.6309   15.8159 C.3     1  UNL1        0.0047
     18 C          65.6051   85.7796   14.5891 C.3     1  UNL1        0.0047
     19 N          64.0884   89.2756   13.7211 N.pl3   1  UNL1       -0.2967
     20 H          64.1708   88.7217   14.5309 H       1  UNL1        0.1535
     21 C          64.7287   90.6311   13.6713 C.2     1  UNL1        0.0785
     22 C          65.2864   91.2436   14.9218 C.2     1  UNL1        0.2463
     23 N          65.9267   92.5991   14.8719 N.2     1  UNL1       -0.0298
     24 C          66.0094   93.3421   13.5715 C.2     1  UNL1        0.3721
     25 N          66.5788   94.6837   13.2165 N.2     1  UNL1       -0.0308
     26 C          66.3730   94.9003   11.7466 C.2     1  UNL1        0.2359
     27 C          65.6764   93.6926   11.1931 C.2     1  UNL1        0.0542
     28 C          65.4518   92.7297   12.3210 C.2     1  UNL1        0.0758
     29 C          64.8114   91.3741   12.3708 C.3     1  UNL1        0.0794
@<TRIPOS>BOND
     1    10    11    1
     2    11    12   ar
     3    12    13   ar
     4    13    14   ar
     5    14     1    1
     6     1     2   ar
     7     2     3   ar
     8     3     4   ar
     9     4     5   ar
    10     5     6   ar
    11     6     7   ar
    12     7    19    1
    13    19    21    1
    14    21    22    2
    15    22    23    1
    16    23    24    2
    17    24    25    1
    18    25    26    2
    19    26    27    1
    20    27    28    2
    21    28    29    1
    22     7     8   ar
    23     8     9   ar
    24     9    16    1
    25    16    17    1
    26    16    18    1
    27    14    15   ar
    28    15    11   ar
    29     9     1   ar
    30     8     3   ar
    31    29    21    1
    32    28    24    1
    33    19    20    1
@<TRIPOS>MOLECULE
*****
 29 33 0 0 0
SMALL
GASTEIGER

@<TRIPOS>ATOM
      1 C          62.3643   85.3549   10.7913 C.ar    1  UNL1        0.0718
      2 C          61.5803   85.8284    9.6033 C.ar    1  UNL1        0.1049
      3 N          61.2599   87.2795    9.8079 N.ar    1  UNL1       -0.2242
      4 N          60.5103   88.2700    8.9671 N.ar    1  UNL1       -0.1422
      5 C          60.3466   89.6838    9.4407 C.ar    1  UNL1        0.2211
      6 N          60.9325   90.1070   10.7551 N.ar    1  UNL1       -0.2060
      7 C          61.6821   89.1165   11.5958 C.ar    1  UNL1        0.1513
      8 C          61.8458   87.7027   11.1222 C.ar    1  UNL1        0.1106
      9 C          62.5284   86.5133   11.7300 C.ar    1  UNL1        0.0040
     10 C          62.9655   80.4348   12.6112 C.3     1  UNL1        0.0967
     11 C          63.1680   81.7052   11.8398 C.ar    1  UNL1        0.2270
     12 N          64.2382   81.9559   10.8191 N.ar    1  UNL1       -0.1114
     13 N          64.0674   83.3536   10.3021 N.ar    1  UNL1       -0.1072
     14 C          62.8916   83.9667   11.0032 C.ar    1  UNL1        0.2508
     15 O          62.3358   82.9480   11.9536 O.2     1  UNL1       -0.4195
     16 C          63.2485   86.4869   13.0455 C.3     1  UNL1        0.0241
     17 C          63.0349   85.3452   13.9948 C.3     1  UNL1        0.0047
     18 C          64.1823   87.6021   13.4119 C.3     1  UNL1        0.0047
     19 N          62.2680   89.5398   12.9102 N.pl3   1  UNL1       -0.2967
     20 H          61.9339   89.1453   13.7480 H       1  UNL1        0.1535
     21 C          63.3631   90.5642   12.9481 C.2     1  UNL1        0.0785
     22 C          63.9559   90.9801   14.2617 C.2     1  UNL1        0.2463
     23 N          65.0510   92.0045   14.2996 N.2     1  UNL1       -0.0298
     24 C          65.5533   92.6130   13.0239 C.2     1  UNL1        0.3721
     25 N          66.6135   93.6381   12.7501 N.2     1  UNL1       -0.0308
     26 C          66.6760   93.8557   11.2674 C.2     1  UNL1        0.2359
     27 C          65.6543   92.9651   10.6247 C.2     1  UNL1        0.0542
     28 C          64.9605   92.1971   11.7103 C.2     1  UNL1        0.0758
     29 C          63.8653   91.1727   11.6724 C.3     1  UNL1        0.0794
@<TRIPOS>BOND
     1    10    11    1
     2    11    12   ar
     3    12    13   ar
     4    13    14   ar
     5    14     1    1
     6     1     2   ar
     7     2     3   ar
     8     3     4   ar
     9     4     5   ar
    10     5     6   ar
    11     6     7   ar
    12     7    19    1
    13    19    21    1
    14    21    22    2
    15    22    23    1
    16    23    24    2
    17    24    25    1
    18    25    26    2
    19    26    27    1
    20    27    28    2
    21    28    29    1
    22     7     8   ar
    23     8     9   ar
    24     9    16    1
    25    16    17    1
    26    16    18    1
    27    14    15   ar
    28    15    11   ar
    29     9     1   ar
    30     8     3   ar
    31    29    21    1
    32    28    24    1
    33    19    20    1
@<TRIPOS>MOLECULE
*****
 29 33 0 0 0
SMALL
GASTEIGER

@<TRIPOS>ATOM
      1 C          61.5597   92.9639    2.4487 C.ar    1  UNL1        0.0718
      2 C          62.9937   93.2534    2.7797 C.ar    1  UNL1        0.1049
      3 N          63.6440   93.8315    1.5579 N.ar    1  UNL1       -0.2242
      4 N          65.0426   94.3049    1.2940 N.ar    1  UNL1       -0.1422
      5 C          65.4091   94.8461   -0.0561 C.ar    1  UNL1        0.2211
      6 N          64.3769   94.9139   -1.1423 N.ar    1  UNL1       -0.2060
      7 C          62.9782   94.4405   -0.8785 C.ar    1  UNL1        0.1513
      8 C          62.6118   93.8993    0.4716 C.ar    1  UNL1        0.1106
      9 C          61.3236   93.3631    1.0222 C.ar    1  UNL1        0.0040
     10 C          59.2727   89.9751    6.1525 C.3     1  UNL1        0.0967
     11 C          59.4894   91.0043    5.0830 C.ar    1  UNL1        0.2270
     12 N          58.4553   91.9489    4.5459 N.ar    1  UNL1       -0.1114
     13 N          59.1050   92.7980    3.4938 N.ar    1  UNL1       -0.1072
     14 C          60.5406   92.3781    3.3805 C.ar    1  UNL1        0.2508
     15 O          60.7781   91.2695    4.3627 O.2     1  UNL1       -0.4195
     16 C          60.0270   93.2466    0.2770 C.3     1  UNL1        0.0241
     17 C          59.0654   94.3977    0.2605 C.3     1  UNL1        0.0047
     18 C          59.6920   91.9790   -0.4516 C.3     1  UNL1        0.0047
     19 N          61.9460   94.5083   -1.9647 N.pl3   1  UNL1       -0.2967
     20 H          61.0215   94.7694   -1.7496 H       1  UNL1        0.1535
     21 C          62.3224   94.1783   -3.3787 C.2     1  UNL1        0.0785
     22 C          61.5660   94.7926   -4.5191 C.2     1  UNL1        0.2463
     23 N          61.9424   94.4627   -5.9331 N.2     1  UNL1       -0.0298
     24 C          63.0753   93.5184   -6.2067 C.2     1  UNL1        0.3721
     25 N          63.6703   93.0085   -7.4858 N.2     1  UNL1       -0.0308
     26 C          64.7945   92.0791   -7.1360 C.2     1  UNL1        0.2359
     27 C          64.8943   92.0146   -5.6407 C.2     1  UNL1        0.0542
     28 C          63.8317   92.9041   -5.0664 C.2     1  UNL1        0.0758
     29 C          63.4553   93.2341   -3.6524 C.3     1  UNL1        0.0794
@<TRIPOS>BOND
     1    10    11    1
     2    11    12   ar
     3    12    13   ar
     4    13    14   ar
     5    14     1    1
     6     1     2   ar
     7     2     3   ar
     8     3     4   ar
     9     4     5   ar
    10     5     6   ar
    11     6     7   ar
    12     7    19    1
    13    19    21    1
    14    21    22    2
    15    22    23    1
    16    23    24    2
    17    24    25    1
    18    25    26    2
    19    26    27    1
    20    27    28    2
    21    28    29    1
    22     7     8   ar
    23     8     9   ar
    24     9    16    1
    25    16    17    1
    26    16    18    1
    27    14    15   ar
    28    15    11   ar
    29     9     1   ar
    30     8     3   ar
    31    29    21    1
    32    28    24    1
    33    19    20    1
