@<TRIPOS>MOLECULE
*****
 33 37 0 0 0
SMALL
GASTEIGER

@<TRIPOS>ATOM
      1 C          60.5425   85.9748    8.0263 C.3     1  UNL1        0.0339
      2 C          61.0724   86.8202    9.1465 C.3     1  UNL1        0.1351
      3 C          61.8155   86.1809   10.2818 C.3     1  UNL1        0.1231
      4 N          62.3453   87.0262   11.4019 N.am    1  UNL1       -0.2724
      5 C          63.0885   86.3868   12.5373 C.2     1  UNL1        0.2507
      6 O          63.6183   87.2322   13.6574 O.2     1  UNL1       -0.2698
      7 C          62.1321   88.5109   11.3867 C.3     1  UNL1        0.1096
      8 C          61.3889   89.1502   10.2514 C.3     1  UNL1        0.1621
      9 O          60.8591   88.3048    9.1313 O.3     1  UNL1       -0.3527
     10 C          63.3018   84.9022   12.5525 C.ar    1  UNL1        0.0738
     11 C          63.5406   84.1656   11.2678 C.ar    1  UNL1        0.0175
     12 C          63.7539   82.6808   11.2831 C.ar    1  UNL1        0.0579
     13 CL         63.9927   81.9442    9.9984 Cl      1  UNL1       -0.0822
     14 C          63.7284   81.9328   12.5829 C.ar    1  UNL1        0.0130
     15 C          63.4895   82.6694   13.8676 C.ar    1  UNL1        0.0219
     16 C          63.2762   84.1540   13.8524 C.ar    1  UNL1        0.1073
     17 N          63.0374   84.8906   15.1371 N.ar    1  UNL1       -0.1477
     18 N          61.7059   85.1147   15.7905 N.ar    1  UNL1       -0.1447
     19 C          61.9337   85.8951   17.0512 C.ar    1  UNL1        0.1446
     20 C          63.4060   86.1533   17.1768 C.ar    1  UNL1        0.1446
     21 N          64.0881   85.5325   15.9938 N.ar    1  UNL1       -0.1447
     22 C          62.6619   89.3562   12.5068 C.3     1  UNL1        0.0488
     23 C          63.6407   90.4556   12.2184 C.ar    1  UNL1       -0.0189
     24 C          63.6094   91.1594   10.8941 C.ar    1  UNL1       -0.0041
     25 C          64.5882   92.2589   10.6058 C.ar    1  UNL1        0.0013
     26 C          65.5983   92.6546   11.6417 C.ar    1  UNL1        0.0209
     27 C          65.6296   91.9508   12.9659 C.ar    1  UNL1        0.1026
     28 C          64.6508   90.8513   13.2544 C.ar    1  UNL1        0.0167
     29 N          66.6397   92.3465   14.0018 N.ar    1  UNL1       -0.1478
     30 N          68.1296   92.3398   13.8283 N.ar    1  UNL1       -0.1447
     31 C          68.7480   92.8075   15.1124 C.ar    1  UNL1        0.1446
     32 C          67.6403   93.1034   16.0795 C.ar    1  UNL1        0.1446
     33 N          66.3373   92.8184   15.3932 N.ar    1  UNL1       -0.1447
@<TRIPOS>BOND
     1     2     1    1
     2     2     3    1
     3     3     4    1
     4     4     5   am
     5     5     6    2
     6     5    10    1
     7    10    11   ar
     8    11    12   ar
     9    12    13    1
    10    12    14   ar
    11    14    15   ar
    12    15    16   ar
    13    16    17    1
    14    17    18   ar
    15    18    19   ar
    16    19    20   ar
    17    20    21   ar
    18     4     7    1
    19     7    22    1
    20    22    23    1
    21    23    24   ar
    22    24    25   ar
    23    25    26   ar
    24    26    27   ar
    25    27    29    1
    26    29    30   ar
    27    30    31   ar
    28    31    32   ar
    29    32    33   ar
    30    27    28   ar
    31     7     8    1
    32     8     9    1
    33     9     2    1
    34    16    10   ar
    35    21    17   ar
    36    28    23   ar
    37    33    29   ar
@<TRIPOS>MOLECULE
*****
 33 37 0 0 0
SMALL
GASTEIGER

@<TRIPOS>ATOM
      1 C          64.0459   84.0658   13.8303 C.3     1  UNL1        0.0339
      2 C          64.0130   85.5654   13.8209 C.3     1  UNL1        0.1351
      3 C          63.3477   86.2939   12.6910 C.3     1  UNL1        0.1231
      4 N          63.3148   87.7935   12.6816 N.am    1  UNL1       -0.2724
      5 C          62.6494   88.5220   11.5516 C.2     1  UNL1        0.2507
      6 O          62.6165   90.0216   11.5422 O.2     1  UNL1       -0.2698
      7 C          63.9472   88.5647   13.8020 C.3     1  UNL1        0.1096
      8 C          64.6125   87.8362   14.9319 C.3     1  UNL1        0.1621
      9 O          64.6454   86.3366   14.9413 O.3     1  UNL1       -0.3527
     10 C          62.0170   87.7509   10.4312 C.ar    1  UNL1        0.0738
     11 C          62.8235   86.7456    9.6638 C.ar    1  UNL1        0.0175
     12 C          62.1911   85.9745    8.5433 C.ar    1  UNL1        0.0579
     13 CL         62.9976   84.9692    7.7758 Cl      1  UNL1       -0.0822
     14 C          60.7521   86.2086    8.1903 C.ar    1  UNL1        0.0130
     15 C          59.9456   87.2138    8.9578 C.ar    1  UNL1        0.0219
     16 C          60.5780   87.9849   10.0782 C.ar    1  UNL1        0.1073
     17 N          59.7715   88.9902   10.8457 N.ar    1  UNL1       -0.1477
     18 N          59.5783   90.4316   10.4780 N.ar    1  UNL1       -0.1447
     19 C          58.7039   91.0627   11.5207 C.ar    1  UNL1        0.1446
     20 C          58.3567   90.0115   12.5327 C.ar    1  UNL1        0.1446
     21 N          59.0165   88.7306   12.1155 N.ar    1  UNL1       -0.1447
     22 C          63.9142   90.0643   13.7926 C.3     1  UNL1        0.0488
     23 C          65.1955   90.8422   13.7383 C.ar    1  UNL1       -0.0189
     24 C          66.1261   90.8378   14.9147 C.ar    1  UNL1       -0.0041
     25 C          67.4074   91.6158   14.8604 C.ar    1  UNL1        0.0013
     26 C          67.7582   92.3982   13.6297 C.ar    1  UNL1        0.0209
     27 C          66.8277   92.4027   12.4532 C.ar    1  UNL1        0.1026
     28 C          65.5463   91.6247   12.5075 C.ar    1  UNL1        0.0167
     29 N          67.1784   93.1851   11.2225 N.ar    1  UNL1       -0.1478
     30 N          67.9013   92.6577   10.0186 N.ar    1  UNL1       -0.1447
     31 C          68.0376   93.7790    9.0316 C.ar    1  UNL1        0.1446
     32 C          67.3989   94.9994    9.6255 C.ar    1  UNL1        0.1446
     33 N          66.8680   94.6324   10.9795 N.ar    1  UNL1       -0.1447
@<TRIPOS>BOND
     1     2     1    1
     2     2     3    1
     3     3     4    1
     4     4     5   am
     5     5     6    2
     6     5    10    1
     7    10    11   ar
     8    11    12   ar
     9    12    13    1
    10    12    14   ar
    11    14    15   ar
    12    15    16   ar
    13    16    17    1
    14    17    18   ar
    15    18    19   ar
    16    19    20   ar
    17    20    21   ar
    18     4     7    1
    19     7    22    1
    20    22    23    1
    21    23    24   ar
    22    24    25   ar
    23    25    26   ar
    24    26    27   ar
    25    27    29    1
    26    29    30   ar
    27    30    31   ar
    28    31    32   ar
    29    32    33   ar
    30    27    28   ar
    31     7     8    1
    32     8     9    1
    33     9     2    1
    34    16    10   ar
    35    21    17   ar
    36    28    23   ar
    37    33    29   ar
@<TRIPOS>MOLECULE
*****
 33 37 0 0 0
SMALL
GASTEIGER

@<TRIPOS>ATOM
      1 C          59.7879   89.1338    7.9545 C.3     1  UNL1        0.0339
      2 C          60.4430   89.3263    9.2901 C.3     1  UNL1        0.1351
      3 C          61.2696   88.2255    9.8857 C.3     1  UNL1        0.1231
      4 N          61.9246   88.4180   11.2213 N.am    1  UNL1       -0.2724
      5 C          62.7512   87.3171   11.8169 C.2     1  UNL1        0.2507
      6 O          63.4063   87.5096   13.1525 O.2     1  UNL1       -0.2698
      7 C          61.7531   89.7114   11.9612 C.3     1  UNL1        0.1096
      8 C          60.9266   90.8123   11.3656 C.3     1  UNL1        0.1621
      9 O          60.2715   90.6198   10.0300 O.3     1  UNL1       -0.3527
     10 C          62.9227   86.0236   11.0770 C.ar    1  UNL1        0.0738
     11 C          62.8305   85.9980    9.5800 C.ar    1  UNL1        0.0175
     12 C          63.0020   84.7045    8.8401 C.ar    1  UNL1        0.0579
     13 CL         62.9097   84.6788    7.3431 Cl      1  UNL1       -0.0822
     14 C          63.2657   83.4367    9.5971 C.ar    1  UNL1        0.0130
     15 C          63.3579   83.4623   11.0940 C.ar    1  UNL1        0.0219
     16 C          63.1864   84.7557   11.8340 C.ar    1  UNL1        0.1073
     17 N          63.2787   84.7814   13.3309 N.ar    1  UNL1       -0.1477
     18 N          62.1317   84.6414   14.2875 N.ar    1  UNL1       -0.1447
     19 C          62.6783   84.7250   15.6819 C.ar    1  UNL1        0.1446
     20 C          64.1629   84.9166   15.5871 C.ar    1  UNL1        0.1446
     21 N          64.5340   84.9514   14.1341 N.ar    1  UNL1       -0.1447
     22 C          62.4082   89.9040   13.2968 C.3     1  UNL1        0.0488
     23 C          63.7449   90.5787   13.3863 C.ar    1  UNL1       -0.0189
     24 C          64.5805   90.4268   14.6227 C.ar    1  UNL1       -0.0041
     25 C          65.9171   91.1015   14.7122 C.ar    1  UNL1        0.0013
     26 C          66.4183   91.9282   13.5652 C.ar    1  UNL1        0.0209
     27 C          65.5828   92.0801   12.3288 C.ar    1  UNL1        0.1026
     28 C          64.2460   91.4053   12.2393 C.ar    1  UNL1        0.0167
     29 N          66.0839   92.9067   11.1818 N.ar    1  UNL1       -0.1478
     30 N          65.5120   94.2147   10.7215 N.ar    1  UNL1       -0.1447
     31 C          66.3196   94.6868    9.5490 C.ar    1  UNL1        0.1446
     32 C          67.3907   93.6706    9.2846 C.ar    1  UNL1        0.1446
     33 N          67.2450   92.5704   10.2937 N.ar    1  UNL1       -0.1447
@<TRIPOS>BOND
     1     2     1    1
     2     2     3    1
     3     3     4    1
     4     4     5   am
     5     5     6    2
     6     5    10    1
     7    10    11   ar
     8    11    12   ar
     9    12    13    1
    10    12    14   ar
    11    14    15   ar
    12    15    16   ar
    13    16    17    1
    14    17    18   ar
    15    18    19   ar
    16    19    20   ar
    17    20    21   ar
    18     4     7    1
    19     7    22    1
    20    22    23    1
    21    23    24   ar
    22    24    25   ar
    23    25    26   ar
    24    26    27   ar
    25    27    29    1
    26    29    30   ar
    27    30    31   ar
    28    31    32   ar
    29    32    33   ar
    30    27    28   ar
    31     7     8    1
    32     8     9    1
    33     9     2    1
    34    16    10   ar
    35    21    17   ar
    36    28    23   ar
    37    33    29   ar
@<TRIPOS>MOLECULE
*****
 33 37 0 0 0
SMALL
GASTEIGER

@<TRIPOS>ATOM
      1 C          62.7659   83.7895   13.8327 C.3     1  UNL1        0.0339
      2 C          63.1467   85.2292   13.6529 C.3     1  UNL1        0.1351
      3 C          62.7227   85.9686   12.4187 C.3     1  UNL1        0.1231
      4 N          63.1035   87.4083   12.2389 N.am    1  UNL1       -0.2724
      5 C          62.6795   88.1478   11.0046 C.2     1  UNL1        0.2507
      6 O          63.0602   89.5875   10.8248 O.2     1  UNL1       -0.2698
      7 C          63.9081   88.1086   13.2934 C.3     1  UNL1        0.1096
      8 C          64.3321   87.3692   14.5277 C.3     1  UNL1        0.1621
      9 O          63.9514   85.9295   14.7075 O.3     1  UNL1       -0.3527
     10 C          61.8748   87.4475    9.9500 C.ar    1  UNL1        0.0738
     11 C          62.5311   86.4439    9.0489 C.ar    1  UNL1        0.0175
     12 C          61.7263   85.7436    7.9943 C.ar    1  UNL1        0.0579
     13 CL         62.3826   84.7400    7.0931 Cl      1  UNL1       -0.0822
     14 C          60.2653   86.0469    7.8410 C.ar    1  UNL1        0.0130
     15 C          59.6091   87.0505    8.7422 C.ar    1  UNL1        0.0219
     16 C          60.4137   87.7508    9.7967 C.ar    1  UNL1        0.1073
     17 N          59.7575   88.7543   10.6978 N.ar    1  UNL1       -0.1477
     18 N          59.0889   88.4587   12.0077 N.ar    1  UNL1       -0.1447
     19 C          58.5728   89.7515   12.5668 C.ar    1  UNL1        0.1446
     20 C          58.9223   90.8460   11.6025 C.ar    1  UNL1        0.1446
     21 N          59.6545   90.2297   10.4474 N.ar    1  UNL1       -0.1447
     22 C          64.2889   89.5483   13.1137 C.3     1  UNL1        0.0488
     23 C          64.5396   90.4132   14.3132 C.ar    1  UNL1       -0.0189
     24 C          63.4763   90.5712   15.3594 C.ar    1  UNL1       -0.0041
     25 C          63.7270   91.4361   16.5590 C.ar    1  UNL1        0.0013
     26 C          65.0410   92.1430   16.7125 C.ar    1  UNL1        0.0209
     27 C          66.1043   91.9851   15.6664 C.ar    1  UNL1        0.1026
     28 C          65.8536   91.1201   14.4667 C.ar    1  UNL1        0.0167
     29 N          67.4184   92.6920   15.8199 N.ar    1  UNL1       -0.1478
     30 N          67.6521   94.1643   15.6540 N.ar    1  UNL1       -0.1447
     31 C          69.1076   94.4330   15.8978 C.ar    1  UNL1        0.1446
     32 C          69.7734   93.1267   16.2144 C.ar    1  UNL1        0.1446
     33 N          68.7294   92.0507   16.1662 N.ar    1  UNL1       -0.1447
@<TRIPOS>BOND
     1     2     1    1
     2     2     3    1
     3     3     4    1
     4     4     5   am
     5     5     6    2
     6     5    10    1
     7    10    11   ar
     8    11    12   ar
     9    12    13    1
    10    12    14   ar
    11    14    15   ar
    12    15    16   ar
    13    16    17    1
    14    17    18   ar
    15    18    19   ar
    16    19    20   ar
    17    20    21   ar
    18     4     7    1
    19     7    22    1
    20    22    23    1
    21    23    24   ar
    22    24    25   ar
    23    25    26   ar
    24    26    27   ar
    25    27    29    1
    26    29    30   ar
    27    30    31   ar
    28    31    32   ar
    29    32    33   ar
    30    27    28   ar
    31     7     8    1
    32     8     9    1
    33     9     2    1
    34    16    10   ar
    35    21    17   ar
    36    28    23   ar
    37    33    29   ar
