@<TRIPOS>MOLECULE
*****
 43 45 0 0 0
SMALL
GASTEIGER

@<TRIPOS>ATOM
      1 C          61.8650   86.1442    9.7836 C.3     1  UNL1        0.0920
      2 C          60.7286   85.9787    8.8184 C.3     1  UNL1        0.2582
      3 S          59.7685   87.1081    8.5894 S.O     1  UNL1        0.0319
      4 O          58.6323   86.9427    7.6243 O.co2   1  UNL1       -0.6812
      5 C          59.9447   88.4032    9.3257 C.3     1  UNL1        0.2736
      6 C          61.0810   88.5686   10.2908 C.3     1  UNL1        0.1416
      7 C          62.0411   87.4392   10.5197 C.3     1  UNL1        0.1353
      8 O          63.1774   87.6047   11.4849 O.3     1  UNL1       -0.3827
      9 H          63.1464   88.4938   11.8714 H       1  UNL1        0.2104
     10 N          61.2572   89.8637   11.0270 N.3     1  UNL1       -0.2887
     11 H          61.5648   89.6267   11.9702 H       1  UNL1        0.1237
     12 C          62.2112   90.8980   10.5074 C.3     1  UNL1        0.0958
     13 C          63.4074   91.2917   11.3223 C.ar    1  UNL1       -0.0066
     14 C          63.5463   90.8047   12.7342 C.ar    1  UNL1       -0.0029
     15 C          64.7425   91.1984   13.5491 C.ar    1  UNL1       -0.0005
     16 C          65.7999   92.0792   12.9520 C.ar    1  UNL1       -0.0021
     17 C          65.6610   92.5661   11.5401 C.ar    1  UNL1        0.0014
     18 C          64.4647   92.1724   10.7252 C.ar    1  UNL1       -0.0050
     19 C          66.7182   93.4468   10.9431 C.3     1  UNL1        0.1071
     20 C          67.2342   92.2863   10.1450 C.3     1  UNL1        0.0339
     21 C          66.2022   94.6073   11.7411 C.3     1  UNL1        0.0339
     22 O          67.7755   94.3275   10.3460 O.3     1  UNL1       -0.3827
     23 H          68.3180   93.8097    9.7307 H       1  UNL1        0.2107
     24 C          62.8251   85.0147   10.0125 C.3     1  UNL1        0.0342
     25 C          62.3828   83.9601   13.8128 C.ar    1  UNL1        0.1535
     26 C          62.5039   84.8095   12.5825 C.ar    1  UNL1        0.0341
     27 C          62.7040   84.1651   11.2428 C.ar    1  UNL1       -0.0166
     28 C          62.7831   82.6713   11.1335 C.ar    1  UNL1        0.0268
     29 C          62.6620   81.8218   12.3638 C.ar    1  UNL1        0.1556
     30 F          62.7411   80.3278   12.2545 F       1  UNL1       -0.2028
     31 C          62.4619   82.4662   13.7034 C.ar    1  UNL1        0.1037
     32 N          62.3408   81.6166   14.9338 N.pl3   1  UNL1       -0.3529
     33 H          62.3927   80.6361   14.8620 H       1  UNL1        0.1425
     34 H          62.2094   82.0396   15.8130 H       1  UNL1        0.1425
     35 O          62.1826   84.6045   15.1524 O.3     1  UNL1       -0.4665
     36 C          63.3152   85.3362   15.8095 C.3     1  UNL1        0.2891
     37 C          64.6868   85.2949   15.2034 C.3     1  UNL1        0.4366
     38 F          66.0583   85.2537   14.5974 F       1  UNL1       -0.1663
     39 F          64.8412   83.8712   15.6497 F       1  UNL1       -0.1663
     40 F          64.5324   86.7186   14.7571 F       1  UNL1       -0.1663
     41 C          63.0764   86.1093   17.0725 C.3     1  UNL1        0.1945
     42 C          63.1029   88.6993   16.8699 C.3     1  UNL1        0.1743
     43 O          62.3416   87.4161   17.0244 O.3     1  UNL1       -0.3469
@<TRIPOS>UNITY_ATOM_ATTR
3 1
charge 1
4 1
charge -1
@<TRIPOS>BOND
     1    42    43    1
     2    43    41    1
     3    36    41    1
     4    36    35    1
     5    35    25    1
     6    25    26   ar
     7    26    27   ar
     8    27    24    1
     9     1    24    1
    10     1     2    1
    11     2     3    1
    12     3     4    2
    13     3     5    1
    14     5     6    1
    15     6    10    1
    16    10    12    1
    17    12    13    1
    18    13    14   ar
    19    14    15   ar
    20    15    16   ar
    21    16    17   ar
    22    17    19    1
    23    19    20    1
    24    19    21    1
    25    19    22    1
    26    17    18   ar
    27     6     7    1
    28     7     8    1
    29    27    28   ar
    30    28    29   ar
    31    29    30    1
    32    29    31   ar
    33    31    32    1
    34    36    37    1
    35    37    38    1
    36    37    39    1
    37    37    40    1
    38    31    25   ar
    39     7     1    1
    40    18    13   ar
    41    10    11    1
    42    22    23    1
    43     8     9    1
    44    32    33    1
    45    32    34    1
@<TRIPOS>MOLECULE
*****
 43 45 0 0 0
SMALL
GASTEIGER

@<TRIPOS>ATOM
      1 C          61.3975   89.4659   10.6265 C.3     1  UNL1        0.0920
      2 C          60.3880   89.7433    9.5522 C.3     1  UNL1        0.2582
      3 S          60.0990   88.7054    8.5085 S.O     1  UNL1        0.0319
      4 O          59.0896   88.9828    7.4343 O.co2   1  UNL1       -0.6812
      5 C          60.8194   87.3900    8.5392 C.3     1  UNL1        0.2736
      6 C          61.8288   87.1126    9.6135 C.3     1  UNL1        0.1416
      7 C          62.1178   88.1506   10.6572 C.3     1  UNL1        0.1353
      8 O          63.1273   87.8731   11.7315 O.3     1  UNL1       -0.3827
      9 H          63.4967   86.9850   11.6065 H       1  UNL1        0.2104
     10 N          62.5492   85.7973    9.6442 N.3     1  UNL1       -0.2887
     11 H          63.4905   85.9850    9.9895 H       1  UNL1        0.1237
     12 C          62.0060   84.6636   10.4625 C.3     1  UNL1        0.0958
     13 C          62.7840   84.1451   11.6355 C.ar    1  UNL1       -0.0066
     14 C          63.5441   82.8570   11.5211 C.ar    1  UNL1       -0.0029
     15 C          64.3221   82.3386   12.6941 C.ar    1  UNL1       -0.0005
     16 C          64.3399   83.1082   13.9816 C.ar    1  UNL1       -0.0021
     17 C          63.5798   84.3963   14.0959 C.ar    1  UNL1        0.0014
     18 C          62.8018   84.9147   12.9229 C.ar    1  UNL1       -0.0050
     19 C          63.5977   85.1659   15.3833 C.3     1  UNL1        0.1071
     20 C          64.8104   85.9160   14.9180 C.3     1  UNL1        0.0339
     21 C          62.3849   84.4158   15.8485 C.3     1  UNL1        0.0339
     22 O          63.6155   85.9355   16.6706 O.3     1  UNL1       -0.3827
     23 H          64.3588   86.5587   16.6645 H       1  UNL1        0.2107
     24 C          61.6865   90.5038   11.6701 C.3     1  UNL1        0.0342
     25 C          65.2087   91.3259   13.3037 C.ar    1  UNL1        0.1535
     26 C          63.8133   90.8031   13.1321 C.ar    1  UNL1        0.0341
     27 C          63.0820   91.0266   11.8417 C.ar    1  UNL1       -0.0166
     28 C          63.7461   91.7729   10.7228 C.ar    1  UNL1        0.0268
     29 C          65.1415   92.2957   10.8944 C.ar    1  UNL1        0.1556
     30 F          65.8057   93.0421    9.7755 F       1  UNL1       -0.2028
     31 C          65.8728   92.0722   12.1848 C.ar    1  UNL1        0.1037
     32 N          67.2683   92.5950   12.3563 N.pl3   1  UNL1       -0.3529
     33 H          67.7042   93.0848   11.6220 H       1  UNL1        0.1425
     34 H          67.7483   92.4483   13.2033 H       1  UNL1        0.1425
     35 O          65.9400   91.1023   14.5941 O.3     1  UNL1       -0.4665
     36 C          65.9719   92.1820   15.6349 C.3     1  UNL1        0.2891
     37 C          67.1519   93.1039   15.7234 C.3     1  UNL1        0.4366
     38 F          68.3319   94.0256   15.8119 F       1  UNL1       -0.1663
     39 F          66.4856   94.0485   14.7676 F       1  UNL1       -0.1663
     40 F          67.8182   92.1592   16.6792 F       1  UNL1       -0.1663
     41 C          64.8238   92.3399   16.5872 C.3     1  UNL1        0.1945
     42 C          63.4136   90.1600   16.6872 C.3     1  UNL1        0.1743
     43 O          63.5357   91.6132   16.3361 O.3     1  UNL1       -0.3469
@<TRIPOS>UNITY_ATOM_ATTR
3 1
charge 1
4 1
charge -1
@<TRIPOS>BOND
     1    42    43    1
     2    43    41    1
     3    36    41    1
     4    36    35    1
     5    35    25    1
     6    25    26   ar
     7    26    27   ar
     8    27    24    1
     9     1    24    1
    10     1     2    1
    11     2     3    1
    12     3     4    2
    13     3     5    1
    14     5     6    1
    15     6    10    1
    16    10    12    1
    17    12    13    1
    18    13    14   ar
    19    14    15   ar
    20    15    16   ar
    21    16    17   ar
    22    17    19    1
    23    19    20    1
    24    19    21    1
    25    19    22    1
    26    17    18   ar
    27     6     7    1
    28     7     8    1
    29    27    28   ar
    30    28    29   ar
    31    29    30    1
    32    29    31   ar
    33    31    32    1
    34    36    37    1
    35    37    38    1
    36    37    39    1
    37    37    40    1
    38    31    25   ar
    39     7     1    1
    40    18    13   ar
    41    10    11    1
    42    22    23    1
    43     8     9    1
    44    32    33    1
    45    32    34    1
@<TRIPOS>MOLECULE
*****
 43 45 0 0 0
SMALL
GASTEIGER

@<TRIPOS>ATOM
      1 C          63.4240   83.6955   11.5988 C.3     1  UNL1        0.0920
      2 C          63.2472   82.2127   11.7405 C.3     1  UNL1        0.2582
      3 S          62.8961   81.6234   13.0745 S.O     1  UNL1        0.0319
      4 O          62.7193   80.1406   13.2163 O.co2   1  UNL1       -0.6812
      5 C          62.7219   82.5169   14.2667 C.3     1  UNL1        0.2736
      6 C          62.8987   83.9997   14.1249 C.3     1  UNL1        0.1416
      7 C          63.2497   84.5890   12.7909 C.3     1  UNL1        0.1353
      8 O          63.4265   86.0718   12.6492 O.3     1  UNL1       -0.3827
      9 H          63.2797   86.4985   13.5078 H       1  UNL1        0.2104
     10 N          62.7244   84.8932   15.3171 N.3     1  UNL1       -0.2887
     11 H          62.4449   84.2954   16.0948 H       1  UNL1        0.1237
     12 C          63.8723   85.7275   15.8032 C.3     1  UNL1        0.0958
     13 C          63.7350   87.2191   15.8818 C.ar    1  UNL1       -0.0066
     14 C          63.1195   87.8528   17.0941 C.ar    1  UNL1       -0.0029
     15 C          62.9821   89.3444   17.1727 C.ar    1  UNL1       -0.0005
     16 C          63.4603   90.2024   16.0390 C.ar    1  UNL1       -0.0021
     17 C          64.0758   89.5688   14.8267 C.ar    1  UNL1        0.0014
     18 C          64.2131   88.0771   14.7481 C.ar    1  UNL1       -0.0050
     19 C          64.5540   90.4267   13.6930 C.3     1  UNL1        0.1071
     20 C          63.5671   89.7660   12.7768 C.3     1  UNL1        0.0339
     21 C          65.5408   91.0874   14.6092 C.3     1  UNL1        0.0339
     22 O          65.0321   91.2846   12.5593 O.3     1  UNL1       -0.3827
     23 H          64.5335   91.0667   11.7563 H       1  UNL1        0.2107
     24 C          63.7750   84.2848   10.2648 C.3     1  UNL1        0.0342
     25 C          60.6141   86.3560    9.0527 C.ar    1  UNL1        0.1535
     26 C          61.6934   85.8045    9.9363 C.ar    1  UNL1        0.0341
     27 C          62.6956   84.8364    9.3811 C.ar    1  UNL1       -0.0166
     28 C          62.6185   84.4198    7.9422 C.ar    1  UNL1        0.0268
     29 C          61.5392   84.9714    7.0585 C.ar    1  UNL1        0.1556
     30 F          61.4621   84.5548    5.6196 F       1  UNL1       -0.2028
     31 C          60.5370   85.9395    7.6138 C.ar    1  UNL1        0.1037
     32 N          59.4577   86.4910    6.7301 N.pl3   1  UNL1       -0.3529
     33 H          59.4071   86.2176    5.7857 H       1  UNL1        0.1425
     34 H          58.7999   87.1265    7.0945 H       1  UNL1        0.1425
     35 O          59.6119   87.3242    9.6080 O.3     1  UNL1       -0.4665
     36 C          59.9450   88.7844    9.6892 C.3     1  UNL1        0.2891
     37 C          60.1011   89.4448   11.0270 C.3     1  UNL1        0.4366
     38 F          60.2571   90.1052   12.3647 F       1  UNL1       -0.1663
     39 F          60.7889   90.6066   10.3733 F       1  UNL1       -0.1663
     40 F          59.4133   88.2831   11.6807 F       1  UNL1       -0.1663
     41 C          60.1221   89.5844    8.4327 C.3     1  UNL1        0.1945
     42 C          59.4228   90.1081    5.9859 C.3     1  UNL1        0.1743
     43 O          59.3227   89.2460    7.2093 O.3     1  UNL1       -0.3469
@<TRIPOS>UNITY_ATOM_ATTR
3 1
charge 1
4 1
charge -1
@<TRIPOS>BOND
     1    42    43    1
     2    43    41    1
     3    36    41    1
     4    36    35    1
     5    35    25    1
     6    25    26   ar
     7    26    27   ar
     8    27    24    1
     9     1    24    1
    10     1     2    1
    11     2     3    1
    12     3     4    2
    13     3     5    1
    14     5     6    1
    15     6    10    1
    16    10    12    1
    17    12    13    1
    18    13    14   ar
    19    14    15   ar
    20    15    16   ar
    21    16    17   ar
    22    17    19    1
    23    19    20    1
    24    19    21    1
    25    19    22    1
    26    17    18   ar
    27     6     7    1
    28     7     8    1
    29    27    28   ar
    30    28    29   ar
    31    29    30    1
    32    29    31   ar
    33    31    32    1
    34    36    37    1
    35    37    38    1
    36    37    39    1
    37    37    40    1
    38    31    25   ar
    39     7     1    1
    40    18    13   ar
    41    10    11    1
    42    22    23    1
    43     8     9    1
    44    32    33    1
    45    32    34    1
@<TRIPOS>MOLECULE
*****
 43 45 0 0 0
SMALL
GASTEIGER

@<TRIPOS>ATOM
      1 C          62.2483   85.5757    9.9782 C.3     1  UNL1        0.0920
      2 C          61.3477   85.4556    8.7847 C.3     1  UNL1        0.2582
      3 S          60.2296   86.4358    8.5872 S.O     1  UNL1        0.0319
      4 O          59.3289   86.3158    7.3937 O.co2   1  UNL1       -0.6812
      5 C          60.0122   87.5362    9.5832 C.3     1  UNL1        0.2736
      6 C          60.9129   87.6563   10.7766 C.3     1  UNL1        0.1416
      7 C          62.0309   86.6760   10.9741 C.3     1  UNL1        0.1353
      8 O          62.9316   86.7962   12.1677 O.3     1  UNL1       -0.3827
      9 H          62.6556   87.5544   12.7060 H       1  UNL1        0.2104
     10 N          60.6955   88.7567   11.7726 N.3     1  UNL1       -0.2887
     11 H          61.3210   88.5718   12.5568 H       1  UNL1        0.1237
     12 C          60.9144   90.1854   11.3715 C.3     1  UNL1        0.0958
     13 C          62.2921   90.7764   11.4238 C.ar    1  UNL1       -0.0066
     14 C          62.9365   91.2887   10.1699 C.ar    1  UNL1       -0.0029
     15 C          64.3141   91.8797   10.2222 C.ar    1  UNL1       -0.0005
     16 C          65.0474   91.9583   11.5284 C.ar    1  UNL1       -0.0021
     17 C          64.4030   91.4460   12.7823 C.ar    1  UNL1        0.0014
     18 C          63.0253   90.8550   12.7300 C.ar    1  UNL1       -0.0050
     19 C          65.1363   91.5246   14.0884 C.3     1  UNL1        0.1071
     20 C          63.9335   90.9756   14.7967 C.3     1  UNL1        0.0339
     21 C          66.3391   92.0737   13.3801 C.3     1  UNL1        0.0339
     22 O          65.8696   91.6033   15.3946 O.3     1  UNL1       -0.3827
     23 H          65.2943   91.2855   16.1080 H       1  UNL1        0.2107
     24 C          63.3664   84.5954   10.1757 C.3     1  UNL1        0.0342
     25 C          63.1544   82.7542   13.6850 C.ar    1  UNL1        0.1535
     26 C          63.2834   83.8426   12.6610 C.ar    1  UNL1        0.0341
     27 C          63.2374   83.5069   11.1997 C.ar    1  UNL1       -0.0166
     28 C          63.0623   82.0828   10.7625 C.ar    1  UNL1        0.0268
     29 C          62.9333   80.9944   11.7866 C.ar    1  UNL1        0.1556
     30 F          62.7582   79.5702   11.3494 F       1  UNL1       -0.2028
     31 C          62.9793   81.3301   13.2478 C.ar    1  UNL1        0.1037
     32 N          62.8503   80.2416   14.2718 N.pl3   1  UNL1       -0.3529
     33 H          62.7354   79.3069   13.9849 H       1  UNL1        0.1425
     34 H          62.8805   80.4619   15.2309 H       1  UNL1        0.1425
     35 O          63.2005   83.0899   15.1462 O.3     1  UNL1       -0.4665
     36 C          63.4589   84.5012   15.5838 C.3     1  UNL1        0.2891
     37 C          62.4126   85.2513   16.3537 C.3     1  UNL1        0.4366
     38 F          61.3664   86.0013   17.1235 F       1  UNL1       -0.1663
     39 F          63.4779   85.8318   17.2358 F       1  UNL1       -0.1663
     40 F          61.3474   84.6708   15.4716 F       1  UNL1       -0.1663
     41 C          64.7637   85.1624   15.2514 C.3     1  UNL1        0.1945
     42 C          64.4918   87.7166   14.8610 C.3     1  UNL1        0.1743
     43 O          64.7914   86.3460   14.3303 O.3     1  UNL1       -0.3469
@<TRIPOS>UNITY_ATOM_ATTR
3 1
charge 1
4 1
charge -1
@<TRIPOS>BOND
     1    42    43    1
     2    43    41    1
     3    36    41    1
     4    36    35    1
     5    35    25    1
     6    25    26   ar
     7    26    27   ar
     8    27    24    1
     9     1    24    1
    10     1     2    1
    11     2     3    1
    12     3     4    2
    13     3     5    1
    14     5     6    1
    15     6    10    1
    16    10    12    1
    17    12    13    1
    18    13    14   ar
    19    14    15   ar
    20    15    16   ar
    21    16    17   ar
    22    17    19    1
    23    19    20    1
    24    19    21    1
    25    19    22    1
    26    17    18   ar
    27     6     7    1
    28     7     8    1
    29    27    28   ar
    30    28    29   ar
    31    29    30    1
    32    29    31   ar
    33    31    32    1
    34    36    37    1
    35    37    38    1
    36    37    39    1
    37    37    40    1
    38    31    25   ar
    39     7     1    1
    40    18    13   ar
    41    10    11    1
    42    22    23    1
    43     8     9    1
    44    32    33    1
    45    32    34    1
@<TRIPOS>MOLECULE
*****
 43 45 0 0 0
SMALL
GASTEIGER

@<TRIPOS>ATOM
      1 C          62.1770   90.7148   10.8803 C.3     1  UNL1        0.0920
      2 C          63.2904   91.4741   10.2216 C.3     1  UNL1        0.2582
      3 S          64.4797   91.9091   11.0255 S.O     1  UNL1        0.0319
      4 O          65.5931   92.6684   10.3669 O.co2   1  UNL1       -0.6812
      5 C          64.5557   91.5848   12.4881 C.3     1  UNL1        0.2736
      6 C          63.4423   90.8255   13.1467 C.3     1  UNL1        0.1416
      7 C          62.2529   90.3905   12.3428 C.3     1  UNL1        0.1353
      8 O          61.1395   89.6312   13.0015 O.3     1  UNL1       -0.3827
      9 H          61.3449   89.5065   13.9413 H       1  UNL1        0.2104
     10 N          63.5182   90.5012   14.6093 N.3     1  UNL1       -0.2887
     11 H          62.5814   90.2187   14.8973 H       1  UNL1        0.1237
     12 C          64.4591   89.4383   15.0940 C.3     1  UNL1        0.0958
     13 C          63.9181   88.1755   15.6961 C.ar    1  UNL1       -0.0066
     14 C          63.1086   88.2329   16.9576 C.ar    1  UNL1       -0.0029
     15 C          62.5676   86.9701   17.5597 C.ar    1  UNL1       -0.0005
     16 C          62.8361   85.6498   16.9004 C.ar    1  UNL1       -0.0021
     17 C          63.6457   85.5923   15.6389 C.ar    1  UNL1        0.0014
     18 C          64.1867   86.8552   15.0367 C.ar    1  UNL1       -0.0050
     19 C          63.9142   84.2721   14.9795 C.3     1  UNL1        0.1071
     20 C          65.2239   84.7941   14.4677 C.3     1  UNL1        0.0339
     21 C          62.6044   83.7501   15.4913 C.3     1  UNL1        0.0339
     22 O          64.1827   82.9519   14.3201 O.3     1  UNL1       -0.3827
     23 H          65.0391   82.9855   13.8660 H       1  UNL1        0.2107
     24 C          60.9876   90.2798   10.0764 C.3     1  UNL1        0.0342
     25 C          62.1288   86.6496    8.9496 C.ar    1  UNL1        0.1535
     26 C          62.1336   87.9943    9.6141 C.ar    1  UNL1        0.0341
     27 C          60.9828   88.9350    9.4118 C.ar    1  UNL1       -0.0166
     28 C          59.8273   88.5309    8.5450 C.ar    1  UNL1        0.0268
     29 C          59.8225   87.1862    7.8805 C.ar    1  UNL1        0.1556
     30 F          58.6669   86.7820    7.0137 F       1  UNL1       -0.2028
     31 C          60.9732   86.2455    8.0828 C.ar    1  UNL1        0.1037
     32 N          60.9684   84.9007    7.4182 N.pl3   1  UNL1       -0.3529
     33 H          60.2099   84.6355    6.8493 H       1  UNL1        0.1425
     34 H          61.7236   84.2833    7.5510 H       1  UNL1        0.1425
     35 O          63.2795   85.7089    9.1519 O.3     1  UNL1       -0.4665
     36 C          63.2441   84.7102   10.2705 C.3     1  UNL1        0.2891
     37 C          62.4756   85.0133   11.5226 C.3     1  UNL1        0.4366
     38 F          61.7071   85.3163   12.7746 F       1  UNL1       -0.1663
     39 F          63.5279   86.0018   11.9292 F       1  UNL1       -0.1663
     40 F          61.4233   84.0248   11.1159 F       1  UNL1       -0.1663
     41 C          63.9772   83.4083   10.1371 C.3     1  UNL1        0.1945
     42 C          63.1828   81.3340   11.4847 C.3     1  UNL1        0.1743
     43 O          64.1132   82.4993   11.3225 O.3     1  UNL1       -0.3469
@<TRIPOS>UNITY_ATOM_ATTR
3 1
charge 1
4 1
charge -1
@<TRIPOS>BOND
     1    42    43    1
     2    43    41    1
     3    36    41    1
     4    36    35    1
     5    35    25    1
     6    25    26   ar
     7    26    27   ar
     8    27    24    1
     9     1    24    1
    10     1     2    1
    11     2     3    1
    12     3     4    2
    13     3     5    1
    14     5     6    1
    15     6    10    1
    16    10    12    1
    17    12    13    1
    18    13    14   ar
    19    14    15   ar
    20    15    16   ar
    21    16    17   ar
    22    17    19    1
    23    19    20    1
    24    19    21    1
    25    19    22    1
    26    17    18   ar
    27     6     7    1
    28     7     8    1
    29    27    28   ar
    30    28    29   ar
    31    29    30    1
    32    29    31   ar
    33    31    32    1
    34    36    37    1
    35    37    38    1
    36    37    39    1
    37    37    40    1
    38    31    25   ar
    39     7     1    1
    40    18    13   ar
    41    10    11    1
    42    22    23    1
    43     8     9    1
    44    32    33    1
    45    32    34    1
@<TRIPOS>MOLECULE
*****
 43 45 0 0 0
SMALL
GASTEIGER

@<TRIPOS>ATOM
      1 C          63.5685   88.6504   15.8553 C.3     1  UNL1        0.0920
      2 C          62.9516   88.3469   17.1885 C.3     1  UNL1        0.2582
      3 S          62.8645   86.9287   17.6691 S.O     1  UNL1        0.0319
      4 O          62.2475   86.6251   19.0022 O.co2   1  UNL1       -0.6812
      5 C          63.3943   85.8139   16.8166 C.3     1  UNL1        0.2736
      6 C          64.0112   86.1175   15.4835 C.3     1  UNL1        0.1416
      7 C          64.0983   87.5357   15.0028 C.3     1  UNL1        0.1353
      8 O          64.7153   87.8392   13.6696 O.3     1  UNL1       -0.3827
      9 H          65.0041   87.0130   13.2514 H       1  UNL1        0.2104
     10 N          64.5411   85.0028   14.6310 N.3     1  UNL1       -0.2887
     11 H          65.1251   84.4231   15.2337 H       1  UNL1        0.1237
     12 C          63.5907   84.0780   13.9298 C.3     1  UNL1        0.0958
     13 C          63.5356   84.0544   12.4311 C.ar    1  UNL1       -0.0066
     14 C          64.3163   83.0256   11.6680 C.ar    1  UNL1       -0.0029
     15 C          64.2613   83.0020   10.1692 C.ar    1  UNL1       -0.0005
     16 C          63.4255   84.0071    9.4334 C.ar    1  UNL1       -0.0021
     17 C          62.6449   85.0359   10.1965 C.ar    1  UNL1        0.0014
     18 C          62.6999   85.0595   11.6953 C.ar    1  UNL1       -0.0050
     19 C          61.8092   86.0410    9.4608 C.3     1  UNL1        0.1071
     20 C          61.1524   86.4382   10.7495 C.3     1  UNL1        0.0339
     21 C          62.4659   85.6437    8.1721 C.3     1  UNL1        0.0339
     22 O          60.9735   87.0461    8.7251 O.3     1  UNL1       -0.3827
     23 H          60.3929   87.5049    9.3522 H       1  UNL1        0.2107
     24 C          63.6556   90.0686   15.3746 C.3     1  UNL1        0.0342
     25 C          64.2757   91.4817   11.7183 C.ar    1  UNL1        0.1535
     26 C          64.4822   91.1679   13.1704 C.ar    1  UNL1        0.0341
     27 C          63.4490   90.3824   13.9224 C.ar    1  UNL1       -0.0166
     28 C          62.2093   89.9106   13.2221 C.ar    1  UNL1        0.0268
     29 C          62.0027   90.2243   11.7700 C.ar    1  UNL1        0.1556
     30 F          60.7629   89.7526   11.0697 F       1  UNL1       -0.2028
     31 C          63.0360   91.0099   11.0180 C.ar    1  UNL1        0.1037
     32 N          62.8294   91.3236    9.5658 N.pl3   1  UNL1       -0.3529
     33 H          62.0156   91.0140    9.1062 H       1  UNL1        0.1425
     34 H          63.5075   91.8392    9.0722 H       1  UNL1        0.1425
     35 O          65.3089   92.2672   10.9663 O.3     1  UNL1       -0.4665
     36 C          66.4301   92.9337   11.7071 C.3     1  UNL1        0.2891
     37 C          67.6520   92.1488   12.0826 C.3     1  UNL1        0.4366
     38 F          68.8739   91.3639   12.4580 F       1  UNL1       -0.1663
     39 F          67.3842   92.4253   13.5323 F       1  UNL1       -0.1663
     40 F          67.9198   91.8722   10.6328 F       1  UNL1       -0.1663
     41 C          66.3295   94.3850   12.0723 C.3     1  UNL1        0.1945
     42 C          67.2806   95.0375    9.7442 C.3     1  UNL1        0.1743
     43 O          66.7747   95.4360   11.0990 O.3     1  UNL1       -0.3469
@<TRIPOS>UNITY_ATOM_ATTR
3 1
charge 1
4 1
charge -1
@<TRIPOS>BOND
     1    42    43    1
     2    43    41    1
     3    36    41    1
     4    36    35    1
     5    35    25    1
     6    25    26   ar
     7    26    27   ar
     8    27    24    1
     9     1    24    1
    10     1     2    1
    11     2     3    1
    12     3     4    2
    13     3     5    1
    14     5     6    1
    15     6    10    1
    16    10    12    1
    17    12    13    1
    18    13    14   ar
    19    14    15   ar
    20    15    16   ar
    21    16    17   ar
    22    17    19    1
    23    19    20    1
    24    19    21    1
    25    19    22    1
    26    17    18   ar
    27     6     7    1
    28     7     8    1
    29    27    28   ar
    30    28    29   ar
    31    29    30    1
    32    29    31   ar
    33    31    32    1
    34    36    37    1
    35    37    38    1
    36    37    39    1
    37    37    40    1
    38    31    25   ar
    39     7     1    1
    40    18    13   ar
    41    10    11    1
    42    22    23    1
    43     8     9    1
    44    32    33    1
    45    32    34    1
@<TRIPOS>MOLECULE
*****
 43 45 0 0 0
SMALL
GASTEIGER

@<TRIPOS>ATOM
      1 C          64.3417   90.8529   14.7361 C.3     1  UNL1        0.0920
      2 C          65.6762   91.5379   14.7282 C.3     1  UNL1        0.2582
      3 S          66.1664   92.2108   13.4803 S.O     1  UNL1        0.0319
      4 O          67.5008   92.8957   13.4723 O.co2   1  UNL1       -0.6812
      5 C          65.3221   92.1986   12.2405 C.3     1  UNL1        0.2736
      6 C          63.9877   91.5136   12.2486 C.3     1  UNL1        0.1416
      7 C          63.4975   90.8408   13.4964 C.3     1  UNL1        0.1353
      8 O          62.1630   90.1558   13.5043 O.3     1  UNL1       -0.3827
      9 H          61.7507   90.2407   12.6304 H       1  UNL1        0.2104
     10 N          63.1434   91.5014   11.0087 N.3     1  UNL1       -0.2887
     11 H          63.4633   92.2758   10.4270 H       1  UNL1        0.1237
     12 C          63.1153   90.2844   10.1324 C.3     1  UNL1        0.0958
     13 C          61.8979   89.4086   10.1039 C.ar    1  UNL1       -0.0066
     14 C          60.7778   89.6495   11.0721 C.ar    1  UNL1       -0.0029
     15 C          59.5604   88.7737   11.0436 C.ar    1  UNL1       -0.0005
     16 C          59.4629   87.6571   10.0467 C.ar    1  UNL1       -0.0021
     17 C          60.5829   87.4162    9.0784 C.ar    1  UNL1        0.0014
     18 C          61.8004   88.2920    9.1070 C.ar    1  UNL1       -0.0050
     19 C          60.4855   86.2996    8.0816 C.3     1  UNL1        0.1071
     20 C          61.8958   85.8964    8.3955 C.3     1  UNL1        0.0339
     21 C          59.0753   86.7029    7.7678 C.3     1  UNL1        0.0339
     22 O          60.3881   85.1831    7.0848 O.3     1  UNL1       -0.3827
     23 H          61.2269   84.6965    7.0613 H       1  UNL1        0.2107
     24 C          63.8515   90.1801   15.9839 C.3     1  UNL1        0.0342
     25 C          64.2031   86.3548   14.9870 C.ar    1  UNL1        0.1535
     26 C          64.3262   87.8490   14.9396 C.ar    1  UNL1        0.0341
     27 C          63.7284   88.6859   16.0315 C.ar    1  UNL1       -0.0166
     28 C          63.0074   88.0286   17.1708 C.ar    1  UNL1        0.0268
     29 C          62.8843   86.5344   17.2183 C.ar    1  UNL1        0.1556
     30 F          62.1633   85.8771   18.3576 F       1  UNL1       -0.2028
     31 C          63.4822   85.6976   16.1264 C.ar    1  UNL1        0.1037
     32 N          63.3590   84.2033   16.1739 N.pl3   1  UNL1       -0.3529
     33 H          62.8858   83.7719   16.9217 H       1  UNL1        0.1425
     34 H          63.7514   83.6540   15.4573 H       1  UNL1        0.1425
     35 O          64.8010   85.5180   13.8952 O.3     1  UNL1       -0.4665
     36 C          63.9228   84.6295   13.0649 C.3     1  UNL1        0.2891
     37 C          62.7122   85.1961   12.3841 C.3     1  UNL1        0.4366
     38 F          61.5016   85.7626   11.7033 F       1  UNL1       -0.1663
     39 F          63.3804   86.5370   12.3117 F       1  UNL1       -0.1663
     40 F          62.0440   83.8551   12.4564 F       1  UNL1       -0.1663
     41 C          64.2551   83.1744   12.9155 C.3     1  UNL1        0.1945
     42 C          63.0686   81.0101   13.7266 C.3     1  UNL1        0.1743
     43 O          63.9189   82.2115   14.0155 O.3     1  UNL1       -0.3469
@<TRIPOS>UNITY_ATOM_ATTR
3 1
charge 1
4 1
charge -1
@<TRIPOS>BOND
     1    42    43    1
     2    43    41    1
     3    36    41    1
     4    36    35    1
     5    35    25    1
     6    25    26   ar
     7    26    27   ar
     8    27    24    1
     9     1    24    1
    10     1     2    1
    11     2     3    1
    12     3     4    2
    13     3     5    1
    14     5     6    1
    15     6    10    1
    16    10    12    1
    17    12    13    1
    18    13    14   ar
    19    14    15   ar
    20    15    16   ar
    21    16    17   ar
    22    17    19    1
    23    19    20    1
    24    19    21    1
    25    19    22    1
    26    17    18   ar
    27     6     7    1
    28     7     8    1
    29    27    28   ar
    30    28    29   ar
    31    29    30    1
    32    29    31   ar
    33    31    32    1
    34    36    37    1
    35    37    38    1
    36    37    39    1
    37    37    40    1
    38    31    25   ar
    39     7     1    1
    40    18    13   ar
    41    10    11    1
    42    22    23    1
    43     8     9    1
    44    32    33    1
    45    32    34    1
@<TRIPOS>MOLECULE
*****
 43 45 0 0 0
SMALL
GASTEIGER

@<TRIPOS>ATOM
      1 C          64.3448   91.6830   11.1426 C.3     1  UNL1        0.0920
      2 C          65.1664   92.9295   10.9961 C.3     1  UNL1        0.2582
      3 S          66.0018   93.4161   12.1429 S.O     1  UNL1        0.0319
      4 O          66.8234   94.6625   11.9965 O.co2   1  UNL1       -0.6812
      5 C          66.0157   92.6563   13.4362 C.3     1  UNL1        0.2736
      6 C          65.1942   91.4099   13.5827 C.3     1  UNL1        0.1416
      7 C          64.3587   90.9232   12.4359 C.3     1  UNL1        0.1353
      8 O          63.5371   89.6768   12.5824 O.3     1  UNL1       -0.3827
      9 H          63.6590   89.3120   13.4728 H       1  UNL1        0.2104
     10 N          65.2081   90.6501   14.8760 N.3     1  UNL1       -0.2887
     11 H          65.6694   91.2465   15.5629 H       1  UNL1        0.1237
     12 C          63.9184   90.1963   15.4931 C.3     1  UNL1        0.0958
     13 C          63.7328   88.7561   15.8691 C.ar    1  UNL1       -0.0066
     14 C          63.0256   88.3986   17.1427 C.ar    1  UNL1       -0.0029
     15 C          62.8400   86.9585   17.5188 C.ar    1  UNL1       -0.0005
     16 C          63.3616   85.8757   16.6212 C.ar    1  UNL1       -0.0021
     17 C          64.0687   86.2332   15.3476 C.ar    1  UNL1        0.0014
     18 C          64.2544   87.6734   14.9715 C.ar    1  UNL1       -0.0050
     19 C          64.5903   85.1505   14.4500 C.3     1  UNL1        0.1071
     20 C          63.1860   84.8009   14.0556 C.3     1  UNL1        0.0339
     21 C          65.9947   85.5000   14.8444 C.3     1  UNL1        0.0339
     22 O          65.1119   84.0678   13.5524 O.3     1  UNL1       -0.3827
     23 H          64.3681   83.6213   13.1185 H       1  UNL1        0.2107
     24 C          63.5093   91.1963    9.9958 C.3     1  UNL1        0.0342
     25 C          60.9854   88.1409   10.2055 C.ar    1  UNL1        0.1535
     26 C          62.2300   88.9357    9.9425 C.ar    1  UNL1        0.0341
     27 C          62.2647   90.4015   10.2589 C.ar    1  UNL1       -0.0166
     28 C          61.0548   91.0726   10.8383 C.ar    1  UNL1        0.0268
     29 C          59.8102   90.2778   11.1013 C.ar    1  UNL1        0.1556
     30 F          58.6002   90.9488   11.6808 F       1  UNL1       -0.2028
     31 C          59.7755   88.8119   10.7849 C.ar    1  UNL1        0.1037
     32 N          58.5308   88.0171   11.0480 N.pl3   1  UNL1       -0.3529
     33 H          57.7367   88.4575   11.4283 H       1  UNL1        0.1425
     34 H          58.5080   87.0550   10.8403 H       1  UNL1        0.1425
     35 O          60.9507   86.6750    9.8891 O.3     1  UNL1       -0.4665
     36 C          60.7364   86.2175    8.4768 C.3     1  UNL1        0.2891
     37 C          61.8418   85.5237    7.7372 C.3     1  UNL1        0.4366
     38 F          62.9471   84.8300    6.9977 F       1  UNL1       -0.1663
     39 F          62.8275   86.0021    8.7616 F       1  UNL1       -0.1663
     40 F          60.8561   85.0453    6.7128 F       1  UNL1       -0.1663
     41 C          59.4167   86.4536    7.8040 C.3     1  UNL1        0.1945
     42 C          59.3444   88.9470    7.0776 C.3     1  UNL1        0.1743
     43 O          58.7737   87.8073    7.8683 O.3     1  UNL1       -0.3469
@<TRIPOS>UNITY_ATOM_ATTR
3 1
charge 1
4 1
charge -1
@<TRIPOS>BOND
     1    42    43    1
     2    43    41    1
     3    36    41    1
     4    36    35    1
     5    35    25    1
     6    25    26   ar
     7    26    27   ar
     8    27    24    1
     9     1    24    1
    10     1     2    1
    11     2     3    1
    12     3     4    2
    13     3     5    1
    14     5     6    1
    15     6    10    1
    16    10    12    1
    17    12    13    1
    18    13    14   ar
    19    14    15   ar
    20    15    16   ar
    21    16    17   ar
    22    17    19    1
    23    19    20    1
    24    19    21    1
    25    19    22    1
    26    17    18   ar
    27     6     7    1
    28     7     8    1
    29    27    28   ar
    30    28    29   ar
    31    29    30    1
    32    29    31   ar
    33    31    32    1
    34    36    37    1
    35    37    38    1
    36    37    39    1
    37    37    40    1
    38    31    25   ar
    39     7     1    1
    40    18    13   ar
    41    10    11    1
    42    22    23    1
    43     8     9    1
    44    32    33    1
    45    32    34    1
@<TRIPOS>MOLECULE
*****
 43 45 0 0 0
SMALL
GASTEIGER

@<TRIPOS>ATOM
      1 C          63.1436   83.7062   11.7912 C.3     1  UNL1        0.0920
      2 C          62.7877   82.2751   12.0662 C.3     1  UNL1        0.2582
      3 S          62.4397   81.8433   13.4599 S.O     1  UNL1        0.0319
      4 O          62.0839   80.4123   13.7349 O.co2   1  UNL1       -0.6812
      5 C          62.4476   82.8425   14.5787 C.3     1  UNL1        0.2736
      6 C          62.8034   84.2735   14.3037 C.3     1  UNL1        0.1416
      7 C          63.1514   84.7053   12.9100 C.3     1  UNL1        0.1353
      8 O          63.5072   86.1364   12.6350 O.3     1  UNL1       -0.3827
      9 H          63.4642   86.6446   13.4601 H       1  UNL1        0.2104
     10 N          62.8113   85.2728   15.4224 N.3     1  UNL1       -0.2887
     11 H          62.6521   84.7511   16.2843 H       1  UNL1        0.1237
     12 C          64.0195   86.1312   15.6528 C.3     1  UNL1        0.0958
     13 C          63.8718   87.6197   15.7645 C.ar    1  UNL1       -0.0066
     14 C          63.1160   88.2140   16.9159 C.ar    1  UNL1       -0.0029
     15 C          62.9682   89.7025   17.0276 C.ar    1  UNL1       -0.0005
     16 C          63.5762   90.5968   15.9880 C.ar    1  UNL1       -0.0021
     17 C          64.3319   90.0024   14.8366 C.ar    1  UNL1        0.0014
     18 C          64.4797   88.5139   14.7249 C.ar    1  UNL1       -0.0050
     19 C          64.9399   90.8966   13.7970 C.3     1  UNL1        0.1071
     20 C          66.1780   91.0273   14.6335 C.3     1  UNL1        0.0339
     21 C          63.7017   90.7659   12.9605 C.3     1  UNL1        0.0339
     22 O          65.5478   91.7908   12.7574 O.3     1  UNL1       -0.3827
     23 H          66.4338   92.0632   13.0433 H       1  UNL1        0.2107
     24 C          63.4915   84.1380   10.3975 C.3     1  UNL1        0.0342
     25 C          60.5507   86.5727    9.3140 C.ar    1  UNL1        0.1535
     26 C          61.5737   85.8746   10.1602 C.ar    1  UNL1        0.0341
     27 C          62.4685   84.8361    9.5512 C.ar    1  UNL1       -0.0166
     28 C          62.3405   84.4958    8.0960 C.ar    1  UNL1        0.0268
     29 C          61.3175   85.1939    7.2497 C.ar    1  UNL1        0.1556
     30 F          61.1894   84.8536    5.7944 F       1  UNL1       -0.2028
     31 C          60.4226   86.2324    7.8587 C.ar    1  UNL1        0.1037
     32 N          59.3996   86.9305    7.0124 N.pl3   1  UNL1       -0.3529
     33 H          59.3156   86.7071    6.0573 H       1  UNL1        0.1425
     34 H          58.8123   87.6120    7.4121 H       1  UNL1        0.1425
     35 O          59.6558   87.6111    9.9230 O.3     1  UNL1       -0.4665
     36 C          60.2502   88.8231   10.5770 C.3     1  UNL1        0.2891
     37 C          61.6340   89.2708   10.2100 C.3     1  UNL1        0.4366
     38 F          63.0178   89.7185    9.8430 F       1  UNL1       -0.1663
     39 F          61.1086   89.8428    8.9267 F       1  UNL1       -0.1663
     40 F          62.1594   88.6988   11.4932 F       1  UNL1       -0.1663
     41 C          59.4608   89.5873   11.5982 C.3     1  UNL1        0.1945
     42 C          57.8120   88.6062   13.3500 C.3     1  UNL1        0.1743
     43 O          59.2060   88.9897   12.9502 O.3     1  UNL1       -0.3469
@<TRIPOS>UNITY_ATOM_ATTR
3 1
charge 1
4 1
charge -1
@<TRIPOS>BOND
     1    42    43    1
     2    43    41    1
     3    36    41    1
     4    36    35    1
     5    35    25    1
     6    25    26   ar
     7    26    27   ar
     8    27    24    1
     9     1    24    1
    10     1     2    1
    11     2     3    1
    12     3     4    2
    13     3     5    1
    14     5     6    1
    15     6    10    1
    16    10    12    1
    17    12    13    1
    18    13    14   ar
    19    14    15   ar
    20    15    16   ar
    21    16    17   ar
    22    17    19    1
    23    19    20    1
    24    19    21    1
    25    19    22    1
    26    17    18   ar
    27     6     7    1
    28     7     8    1
    29    27    28   ar
    30    28    29   ar
    31    29    30    1
    32    29    31   ar
    33    31    32    1
    34    36    37    1
    35    37    38    1
    36    37    39    1
    37    37    40    1
    38    31    25   ar
    39     7     1    1
    40    18    13   ar
    41    10    11    1
    42    22    23    1
    43     8     9    1
    44    32    33    1
    45    32    34    1
