@<TRIPOS>MOLECULE
*****
 35 39 0 0 0
SMALL
GASTEIGER

@<TRIPOS>ATOM
      1 C          63.4011   91.6521   10.0266 C.3     1  UNL1        0.1320
      2 N          64.0401   91.6153   11.3833 N.ar    1  UNL1       -0.3072
      3 C          64.9807   92.6409   11.9429 C.ar    1  UNL1        0.1455
      4 N          65.5310   93.9148   11.3734 N.ar    1  UNL1       -0.2267
      5 C          66.4732   94.7537   12.1850 C.ar    1  UNL1        0.1007
      6 C          66.8650   94.3186   13.5660 C.ar    1  UNL1        0.0253
      7 C          66.3147   93.0448   14.1355 C.ar    1  UNL1        0.0591
      8 C          65.3725   92.2059   13.3239 C.ar    1  UNL1        0.0577
      9 C          64.6740   90.9114   13.6178 C.ar    1  UNL1        0.1046
     10 N          64.6815   90.0178   14.8225 N.ar    1  UNL1       -0.2223
     11 C          63.8655   88.7592   14.8279 C.ar    1  UNL1        0.2001
     12 N          63.0420   88.3942   13.6285 N.ar    1  UNL1       -0.2075
     13 C          63.0345   89.2877   12.4237 C.ar    1  UNL1        0.1510
     14 C          63.8505   90.5463   12.4184 C.ar    1  UNL1        0.1110
     15 N          62.2110   88.9226   11.2243 N.pl3   1  UNL1       -0.2892
     16 C          62.5666   87.7142   10.4101 C.3     1  UNL1        0.1095
     17 C          61.7430   87.3491    9.2107 C.3     1  UNL1        0.0939
     18 N          60.5639   88.1926    8.8256 N.3     1  UNL1       -0.2695
     19 C          60.2083   89.4012    9.6398 C.3     1  UNL1        0.0939
     20 C          61.0319   89.7661   10.8392 C.3     1  UNL1        0.1095
     21 C          59.7404   87.8276    7.6262 C.3     1  UNL1        0.0769
     22 C          58.6441   88.7406    7.1629 C.3     1  UNL1        0.0437
     23 C          58.9459   89.8415    6.1898 C.ar    1  UNL1       -0.0184
     24 C          57.8453   90.7396    5.7084 C.ar    1  UNL1       -0.0018
     25 C          58.1472   91.8405    4.7353 C.ar    1  UNL1        0.0316
     26 C          59.5497   92.0432    4.2436 C.ar    1  UNL1        0.1674
     27 F          59.8515   93.1441    3.2704 F       1  UNL1       -0.2018
     28 C          60.6504   91.1450    4.7250 C.ar    1  UNL1        0.1671
     29 F          62.0530   91.3477    4.2333 F       1  UNL1       -0.2018
     30 C          60.3485   90.0442    5.6981 C.ar    1  UNL1        0.0277
     31 C          66.7065   92.6097   15.5165 C.2     1  UNL1        0.2429
     32 N          65.7169   92.6995   16.6401 N.am    1  UNL1       -0.3253
     33 O          68.0879   92.0850   15.7739 O.2     1  UNL1       -0.2704
     34 H          64.8102   93.0439   16.4712 H       1  UNL1        0.1453
     35 H          65.9741   92.4140   17.5465 H       1  UNL1        0.1453
@<TRIPOS>BOND
     1     1     2    1
     2     2     3   ar
     3     3     4   ar
     4     4     5   ar
     5     5     6   ar
     6     6     7   ar
     7     7    31    1
     8    31    32   am
     9    31    33    2
    10     7     8   ar
    11     8     9   ar
    12     9    10   ar
    13    10    11   ar
    14    11    12   ar
    15    12    13   ar
    16    13    15    1
    17    15    16    1
    18    16    17    1
    19    17    18    1
    20    18    21    1
    21    21    22    1
    22    22    23    1
    23    23    24   ar
    24    24    25   ar
    25    25    26   ar
    26    26    27    1
    27    26    28   ar
    28    28    29    1
    29    28    30   ar
    30    18    19    1
    31    19    20    1
    32    13    14   ar
    33    14     2   ar
    34     8     3   ar
    35    14     9   ar
    36    20    15    1
    37    30    23   ar
    38    32    34    1
    39    32    35    1
@<TRIPOS>MOLECULE
*****
 35 39 0 0 0
SMALL
GASTEIGER

@<TRIPOS>ATOM
      1 C          61.8979   90.4816   10.4678 C.3     1  UNL1        0.1320
      2 N          62.4016   89.4044   11.3820 N.ar    1  UNL1       -0.3072
      3 C          63.2431   89.6096   12.6067 C.ar    1  UNL1        0.1455
      4 N          63.7978   90.8471   13.2475 N.ar    1  UNL1       -0.2267
      5 C          64.6233   90.7400   14.4954 C.ar    1  UNL1        0.1007
      6 C          64.8939   89.3953   15.1024 C.ar    1  UNL1        0.0253
      7 C          64.3392   88.1577   14.4616 C.ar    1  UNL1        0.0591
      8 C          63.5138   88.2649   13.2137 C.ar    1  UNL1        0.0577
      9 C          62.8395   87.2287   12.3642 C.ar    1  UNL1        0.1046
     10 N          62.7627   85.7348   12.4753 N.ar    1  UNL1       -0.2223
     11 C          61.9985   84.9451   11.4542 C.ar    1  UNL1        0.2001
     12 N          61.3111   85.6494   10.3222 N.ar    1  UNL1       -0.2075
     13 C          61.3880   87.1433   10.2111 C.ar    1  UNL1        0.1510
     14 C          62.1522   87.9329   11.2322 C.ar    1  UNL1        0.1110
     15 N          60.7006   87.8475    9.0791 N.pl3   1  UNL1       -0.2892
     16 C          60.5749   89.3421    9.0914 C.3     1  UNL1        0.1095
     17 C          59.8875   90.0463    7.9593 C.3     1  UNL1        0.0939
     18 N          59.3258   89.2559    6.8149 N.3     1  UNL1       -0.2695
     19 C          59.4515   87.7612    6.8026 C.3     1  UNL1        0.0939
     20 C          60.1389   87.0570    7.9346 C.3     1  UNL1        0.1095
     21 C          58.6385   89.9601    5.6828 C.3     1  UNL1        0.0769
     22 C          58.9468   91.4001    5.3977 C.3     1  UNL1        0.0437
     23 C          59.9941   91.7566    4.3847 C.ar    1  UNL1       -0.0184
     24 C          59.6881   92.7569    3.3097 C.ar    1  UNL1       -0.0018
     25 C          60.7355   93.1133    2.2967 C.ar    1  UNL1        0.0316
     26 C          62.0888   92.4693    2.3588 C.ar    1  UNL1        0.1674
     27 F          63.1361   92.8257    1.3458 F       1  UNL1       -0.2018
     28 C          62.3948   91.4689    3.4338 C.ar    1  UNL1        0.1671
     29 F          63.7481   90.8250    3.4958 F       1  UNL1       -0.2018
     30 C          61.3475   91.1126    4.4467 C.ar    1  UNL1        0.0277
     31 C          64.6098   86.8130   15.0686 C.2     1  UNL1        0.2429
     32 N          63.6232   86.2087   16.0232 N.am    1  UNL1       -0.3253
     33 O          65.8672   86.0726   14.7211 O.2     1  UNL1       -0.2704
     34 H          62.7979   86.6947   16.2514 H       1  UNL1        0.1453
     35 H          63.8008   85.3262   16.4216 H       1  UNL1        0.1453
@<TRIPOS>BOND
     1     1     2    1
     2     2     3   ar
     3     3     4   ar
     4     4     5   ar
     5     5     6   ar
     6     6     7   ar
     7     7    31    1
     8    31    32   am
     9    31    33    2
    10     7     8   ar
    11     8     9   ar
    12     9    10   ar
    13    10    11   ar
    14    11    12   ar
    15    12    13   ar
    16    13    15    1
    17    15    16    1
    18    16    17    1
    19    17    18    1
    20    18    21    1
    21    21    22    1
    22    22    23    1
    23    23    24   ar
    24    24    25   ar
    25    25    26   ar
    26    26    27    1
    27    26    28   ar
    28    28    29    1
    29    28    30   ar
    30    18    19    1
    31    19    20    1
    32    13    14   ar
    33    14     2   ar
    34     8     3   ar
    35    14     9   ar
    36    20    15    1
    37    30    23   ar
    38    32    34    1
    39    32    35    1
@<TRIPOS>MOLECULE
*****
 35 39 0 0 0
SMALL
GASTEIGER

@<TRIPOS>ATOM
      1 C          63.4412   91.6827   10.4384 C.3     1  UNL1        0.1320
      2 N          64.0484   91.7542   11.8082 N.ar    1  UNL1       -0.3072
      3 C          65.1063   92.7195   12.2543 C.ar    1  UNL1        0.1455
      4 N          65.8276   93.8209   11.5355 N.ar    1  UNL1       -0.2267
      5 C          66.8586   94.6376   12.2565 C.ar    1  UNL1        0.1007
      6 C          67.1683   94.3529   13.6963 C.ar    1  UNL1        0.0253
      7 C          66.4471   93.2516   14.4151 C.ar    1  UNL1        0.0591
      8 C          65.4161   92.4348   13.6941 C.ar    1  UNL1        0.0577
      9 C          64.5496   91.2936   14.1378 C.ar    1  UNL1        0.1046
     10 N          64.4210   90.5832   15.4525 N.ar    1  UNL1       -0.2223
     11 C          63.4472   89.4520   15.6018 C.ar    1  UNL1        0.2001
     12 N          62.6020   89.0313   14.4362 N.ar    1  UNL1       -0.2075
     13 C          62.7305   89.7418   13.1214 C.ar    1  UNL1        0.1510
     14 C          63.7043   90.8729   12.9722 C.ar    1  UNL1        0.1110
     15 N          61.8853   89.3211   11.9559 N.pl3   1  UNL1       -0.2892
     16 C          62.5353   88.8964   10.6726 C.3     1  UNL1        0.1095
     17 C          61.6900   88.4757    9.5070 C.3     1  UNL1        0.0939
     18 N          60.1946   88.4797    9.6248 N.3     1  UNL1       -0.2695
     19 C          59.5445   88.9045   10.9082 C.3     1  UNL1        0.0939
     20 C          60.3898   89.3251   12.0736 C.3     1  UNL1        0.1095
     21 C          59.3494   88.0590    8.4592 C.3     1  UNL1        0.0769
     22 C          59.5871   86.7326    7.8004 C.3     1  UNL1        0.0437
     23 C          60.7801   85.9080    8.1833 C.ar    1  UNL1       -0.0184
     24 C          61.6598   85.3222    7.1190 C.ar    1  UNL1       -0.0018
     25 C          62.8529   84.4976    7.5020 C.ar    1  UNL1        0.0316
     26 C          63.1662   84.2589    8.9494 C.ar    1  UNL1        0.1674
     27 F          64.3593   83.4343    9.3323 F       1  UNL1       -0.2018
     28 C          62.2865   84.8447   10.0137 C.ar    1  UNL1        0.1671
     29 F          62.5998   84.6060   11.4611 F       1  UNL1       -0.2018
     30 C          61.0935   85.6693    9.6307 C.ar    1  UNL1        0.0277
     31 C          66.7568   92.9669   15.8549 C.2     1  UNL1        0.2429
     32 N          65.6545   92.9607   16.8722 N.am    1  UNL1       -0.3253
     33 O          68.1689   92.6886   16.2775 O.2     1  UNL1       -0.2704
     34 H          64.7277   93.1433   16.5948 H       1  UNL1        0.1453
     35 H          65.8578   92.7738   17.8172 H       1  UNL1        0.1453
@<TRIPOS>BOND
     1     1     2    1
     2     2     3   ar
     3     3     4   ar
     4     4     5   ar
     5     5     6   ar
     6     6     7   ar
     7     7    31    1
     8    31    32   am
     9    31    33    2
    10     7     8   ar
    11     8     9   ar
    12     9    10   ar
    13    10    11   ar
    14    11    12   ar
    15    12    13   ar
    16    13    15    1
    17    15    16    1
    18    16    17    1
    19    17    18    1
    20    18    21    1
    21    21    22    1
    22    22    23    1
    23    23    24   ar
    24    24    25   ar
    25    25    26   ar
    26    26    27    1
    27    26    28   ar
    28    28    29    1
    29    28    30   ar
    30    18    19    1
    31    19    20    1
    32    13    14   ar
    33    14     2   ar
    34     8     3   ar
    35    14     9   ar
    36    20    15    1
    37    30    23   ar
    38    32    34    1
    39    32    35    1
