@<TRIPOS>MOLECULE
*****
 35 38 0 0 0
SMALL
GASTEIGER

@<TRIPOS>ATOM
      1 C          65.6748   92.8009   11.3437 C.ar    1  UNL1        0.1060
      2 C          65.8762   92.8802   12.8280 C.ar    1  UNL1        0.0215
      3 C          64.9850   92.1001   13.7485 C.ar    1  UNL1        0.0384
      4 C          63.8924   91.2408   13.1846 C.ar    1  UNL1        0.1432
      5 C          63.6910   91.1616   11.7003 C.ar    1  UNL1        0.0888
      6 C          64.5822   91.9416   10.7799 C.ar    1  UNL1        0.0259
      7 C          62.5984   90.3023   11.1366 C.2     1  UNL1        0.2525
      8 O          61.5261   90.9150   10.2854 O.2     1  UNL1       -0.2698
      9 N          62.5782   88.8302   11.4240 N.am    1  UNL1       -0.2660
     10 C          63.5775   88.0801   12.2539 C.3     1  UNL1        0.1236
     11 C          63.1719   86.6361   12.2748 C.ar    1  UNL1        0.0338
     12 C          63.5389   85.2801   12.8006 C.ar    1  UNL1        0.0991
     13 N          62.5158   84.2996   12.3087 N.ar    1  UNL1       -0.2265
     14 N          61.5164   85.0498   11.4788 N.ar    1  UNL1       -0.1679
     15 C          61.9220   86.4938   11.4579 C.ar    1  UNL1        0.0981
     16 C          61.5550   87.8498   10.9320 C.3     1  UNL1        0.1414
     17 C          62.4955   82.8277   12.5961 C.ar    1  UNL1        0.1102
     18 C          62.8654   81.8485   11.5217 C.ar    1  UNL1        0.0214
     19 C          62.8452   80.3764   11.8091 C.ar    1  UNL1        0.0017
     20 C          62.4550   79.8835   13.1710 C.ar    1  UNL1        0.0024
     21 C          62.0850   80.8627   14.2454 C.ar    1  UNL1        0.0312
     22 C          62.1052   82.3347   13.9580 C.ar    1  UNL1        0.1577
     23 F          61.7353   83.3138   15.0324 F       1  UNL1       -0.2026
     24 S          66.5660   93.5809   10.4232 S.O2    1  UNL1        0.0087
     25 O          67.4045   92.3577   10.1985 O.2     1  UNL1       -0.1686
     26 O          65.7274   94.8042   10.6479 O.2     1  UNL1       -0.1686
     27 C          67.2324   95.8313    9.3089 C.3     1  UNL1        0.0276
     28 C          67.4571   94.3610    9.5027 C.3     1  UNL1        0.1560
     29 O          63.0012   90.4608   14.1052 O.3     1  UNL1       -0.4702
     30 C          63.4737   90.1057   15.4838 C.3     1  UNL1        0.2599
     31 C          63.8485   91.1896   16.4506 C.3     1  UNL1        0.0566
     32 C          63.5713   88.6667   15.8957 C.3     1  UNL1        0.4340
     33 F          63.6689   87.2276   16.3078 F       1  UNL1       -0.1664
     34 F          64.7403   88.4821   14.9742 F       1  UNL1       -0.1664
     35 F          62.4023   88.8512   16.8173 F       1  UNL1       -0.1664
@<TRIPOS>BOND
     1    27    28    1
     2    28    24    1
     3    24    25    2
     4    24    26    2
     5    24     1    1
     6     1     2   ar
     7     2     3   ar
     8     3     4   ar
     9     4    29    1
    10    29    30    1
    11    30    31    1
    12    30    32    1
    13    32    33    1
    14    32    34    1
    15    32    35    1
    16     4     5   ar
    17     5     7    1
    18     7     8    2
    19     7     9   am
    20     9    10    1
    21    10    11    1
    22    11    12   ar
    23    12    13   ar
    24    13    17    1
    25    17    18   ar
    26    18    19   ar
    27    19    20   ar
    28    20    21   ar
    29    21    22   ar
    30    22    23    1
    31    13    14   ar
    32    14    15   ar
    33    15    16    1
    34     5     6   ar
    35     6     1   ar
    36    16     9    1
    37    15    11   ar
    38    22    17   ar
@<TRIPOS>MOLECULE
*****
 35 38 0 0 0
SMALL
GASTEIGER

@<TRIPOS>ATOM
      1 C          66.1156   91.5120   14.1226 C.ar    1  UNL1        0.1060
      2 C          65.2654   92.0642   13.0170 C.ar    1  UNL1        0.0215
      3 C          63.9264   91.4546   12.7246 C.ar    1  UNL1        0.0384
      4 C          63.4377   90.2927   13.5378 C.ar    1  UNL1        0.1432
      5 C          64.2878   89.7405   14.6434 C.ar    1  UNL1        0.0888
      6 C          65.6268   90.3502   14.9358 C.ar    1  UNL1        0.0259
      7 C          63.7990   88.5787   15.4565 C.2     1  UNL1        0.2525
      8 O          63.4639   88.7662   16.9065 O.2     1  UNL1       -0.2698
      9 N          63.6452   87.2294   14.8196 N.am    1  UNL1       -0.2660
     10 C          63.9397   86.8913   13.3881 C.3     1  UNL1        0.1236
     11 C          63.6464   85.4342   13.1863 C.ar    1  UNL1        0.0338
     12 C          63.6472   84.3247   12.1768 C.ar    1  UNL1        0.0991
     13 N          63.1719   83.0765   12.8595 N.ar    1  UNL1       -0.2265
     14 N          62.8775   83.4145   14.2910 N.ar    1  UNL1       -0.1679
     15 C          63.1707   84.8717   14.4929 C.ar    1  UNL1        0.0981
     16 C          63.1700   85.9812   15.5024 C.3     1  UNL1        0.1414
     17 C          63.0182   81.7272   12.2227 C.ar    1  UNL1        0.1102
     18 C          62.6054   80.5484   13.0533 C.ar    1  UNL1        0.0214
     19 C          62.4516   79.1990   12.4165 C.ar    1  UNL1        0.0017
     20 C          62.7106   79.0284   10.9489 C.ar    1  UNL1        0.0024
     21 C          63.1234   80.2073   10.1182 C.ar    1  UNL1        0.0312
     22 C          63.2772   81.5565   10.7550 C.ar    1  UNL1        0.1577
     23 F          63.6900   82.7353    9.9243 F       1  UNL1       -0.2026
     24 S          67.4545   92.1216   14.4151 S.O2    1  UNL1        0.0087
     25 O          67.8176   92.0206   12.9632 O.2     1  UNL1       -0.1686
     26 O          67.0914   92.2226   15.8670 O.2     1  UNL1       -0.1686
     27 C          68.9602   93.6459   15.8846 C.3     1  UNL1        0.0276
     28 C          68.7935   92.7313   14.7075 C.3     1  UNL1        0.1560
     29 O          62.0987   89.6831   13.2453 O.3     1  UNL1       -0.4702
     30 C          61.6219   89.5649   11.8281 C.3     1  UNL1        0.2599
     31 C          62.4289   88.7921   10.8273 C.3     1  UNL1        0.0566
     32 C          60.3381   90.2193   11.4115 C.3     1  UNL1        0.4340
     33 F          59.0542   90.8738   10.9950 F       1  UNL1       -0.1664
     34 F          61.0332   90.8322   10.2320 F       1  UNL1       -0.1664
     35 F          59.6430   89.6066   12.5910 F       1  UNL1       -0.1664
@<TRIPOS>BOND
     1    27    28    1
     2    28    24    1
     3    24    25    2
     4    24    26    2
     5    24     1    1
     6     1     2   ar
     7     2     3   ar
     8     3     4   ar
     9     4    29    1
    10    29    30    1
    11    30    31    1
    12    30    32    1
    13    32    33    1
    14    32    34    1
    15    32    35    1
    16     4     5   ar
    17     5     7    1
    18     7     8    2
    19     7     9   am
    20     9    10    1
    21    10    11    1
    22    11    12   ar
    23    12    13   ar
    24    13    17    1
    25    17    18   ar
    26    18    19   ar
    27    19    20   ar
    28    20    21   ar
    29    21    22   ar
    30    22    23    1
    31    13    14   ar
    32    14    15   ar
    33    15    16    1
    34     5     6   ar
    35     6     1   ar
    36    16     9    1
    37    15    11   ar
    38    22    17   ar
@<TRIPOS>MOLECULE
*****
 35 38 0 0 0
SMALL
GASTEIGER

@<TRIPOS>ATOM
      1 C          63.8606   87.9941   13.7183 C.ar    1  UNL1        0.1060
      2 C          64.5234   87.0721   14.6984 C.ar    1  UNL1        0.0215
      3 C          64.4531   85.5874   14.4971 C.ar    1  UNL1        0.0384
      4 C          63.7199   85.0246   13.3157 C.ar    1  UNL1        0.1432
      5 C          63.0570   85.9466   12.3356 C.ar    1  UNL1        0.0888
      6 C          63.1274   87.4314   12.5369 C.ar    1  UNL1        0.0259
      7 C          62.3239   85.3838   11.1542 C.2     1  UNL1        0.2525
      8 O          62.2714   83.8999   10.9414 O.2     1  UNL1       -0.2698
      9 N          61.6432   86.3048   10.1855 N.am    1  UNL1       -0.2660
     10 C          61.6100   87.8022   10.2674 C.3     1  UNL1        0.1236
     11 C          60.8224   88.3130    9.0974 C.ar    1  UNL1        0.0338
     12 C          60.3152   89.5541    8.4249 C.ar    1  UNL1        0.0991
     13 N          59.5481   89.1396    7.2043 N.ar    1  UNL1       -0.2265
     14 N          59.5813   87.6421    7.1225 N.ar    1  UNL1       -0.1679
     15 C          60.3689   87.1313    8.2925 C.ar    1  UNL1        0.0981
     16 C          60.8761   85.8902    8.9650 C.3     1  UNL1        0.1414
     17 C          58.8674   90.0606    6.2357 C.ar    1  UNL1        0.1102
     18 C          57.3701   90.0842    6.1490 C.ar    1  UNL1        0.0214
     19 C          56.6893   91.0052    5.1803 C.ar    1  UNL1        0.0017
     20 C          57.5059   91.9027    4.2984 C.ar    1  UNL1        0.0024
     21 C          59.0033   91.8791    4.3852 C.ar    1  UNL1        0.0312
     22 C          59.6840   90.9581    5.3538 C.ar    1  UNL1        0.1577
     23 F          61.1813   90.9345    5.4405 F       1  UNL1       -0.2026
     24 S          63.9309   89.4789   13.9196 S.O2    1  UNL1        0.0087
     25 O          63.7705   89.6867   12.4428 O.2     1  UNL1       -0.1686
     26 O          64.0912   89.2711   15.3965 O.2     1  UNL1       -0.1686
     27 C          65.3338   91.6475   14.2006 C.3     1  UNL1        0.0276
     28 C          64.0012   90.9636   14.1209 C.3     1  UNL1        0.1560
     29 O          63.6496   83.5399   13.1144 O.3     1  UNL1       -0.4702
     30 C          62.7544   82.7068   13.9830 C.3     1  UNL1        0.2599
     31 C          62.1205   83.3086   15.2020 C.3     1  UNL1        0.0566
     32 C          62.4931   81.2719   13.6328 C.3     1  UNL1        0.4340
     33 F          62.2319   79.8368   13.2825 F       1  UNL1       -0.1664
     34 F          61.1764   81.3369   14.3482 F       1  UNL1       -0.1664
     35 F          63.8098   81.2067   12.9173 F       1  UNL1       -0.1664
@<TRIPOS>BOND
     1    27    28    1
     2    28    24    1
     3    24    25    2
     4    24    26    2
     5    24     1    1
     6     1     2   ar
     7     2     3   ar
     8     3     4   ar
     9     4    29    1
    10    29    30    1
    11    30    31    1
    12    30    32    1
    13    32    33    1
    14    32    34    1
    15    32    35    1
    16     4     5   ar
    17     5     7    1
    18     7     8    2
    19     7     9   am
    20     9    10    1
    21    10    11    1
    22    11    12   ar
    23    12    13   ar
    24    13    17    1
    25    17    18   ar
    26    18    19   ar
    27    19    20   ar
    28    20    21   ar
    29    21    22   ar
    30    22    23    1
    31    13    14   ar
    32    14    15   ar
    33    15    16    1
    34     5     6   ar
    35     6     1   ar
    36    16     9    1
    37    15    11   ar
    38    22    17   ar
@<TRIPOS>MOLECULE
*****
 35 38 0 0 0
SMALL
GASTEIGER

@<TRIPOS>ATOM
      1 C          59.5583   89.1692    7.1378 C.ar    1  UNL1        0.1060
      2 C          59.9163   87.7786    6.7041 C.ar    1  UNL1        0.0215
      3 C          60.2845   86.7453    7.7272 C.ar    1  UNL1        0.0384
      4 C          60.2948   87.1028    9.1840 C.ar    1  UNL1        0.1432
      5 C          59.9368   88.4934    9.6177 C.ar    1  UNL1        0.0888
      6 C          59.5686   89.5266    8.5945 C.ar    1  UNL1        0.0259
      7 C          59.9471   88.8507   11.0745 C.2     1  UNL1        0.2525
      8 O          58.7261   88.6148   11.9132 O.2     1  UNL1       -0.2698
      9 N          61.1785   89.4439   11.6925 N.am    1  UNL1       -0.2660
     10 C          62.4677   89.7358   10.9836 C.3     1  UNL1        0.1236
     11 C          63.4227   90.3216   11.9810 C.ar    1  UNL1        0.0338
     12 C          64.8098   90.8640   12.1593 C.ar    1  UNL1        0.0991
     13 N          64.9681   91.2694   13.5948 N.ar    1  UNL1       -0.2265
     14 N          63.6787   90.9775   14.3037 N.ar    1  UNL1       -0.1679
     15 C          62.7237   90.3917   13.3063 C.ar    1  UNL1        0.0981
     16 C          61.3366   89.8492   13.1280 C.3     1  UNL1        0.1414
     17 C          66.1993   91.8626   14.2129 C.ar    1  UNL1        0.1102
     18 C          67.4841   91.8982   13.4395 C.ar    1  UNL1        0.0214
     19 C          68.7154   92.4914   14.0576 C.ar    1  UNL1        0.0017
     20 C          68.6620   93.0489   15.4491 C.ar    1  UNL1        0.0024
     21 C          67.3771   93.0133   16.2225 C.ar    1  UNL1        0.0312
     22 C          66.1459   92.4202   15.6044 C.ar    1  UNL1        0.1577
     23 F          64.8612   92.3845   16.3778 F       1  UNL1       -0.2026
     24 S          59.1901   90.2025    6.1147 S.O2    1  UNL1        0.0087
     25 O          57.7371   89.9811    6.4140 O.2     1  UNL1       -0.1686
     26 O          60.6432   90.4239    5.8153 O.2     1  UNL1       -0.1686
     27 C          57.3808   91.5811    4.8594 C.3     1  UNL1        0.0276
     28 C          58.8219   91.2358    5.0916 C.3     1  UNL1        0.1560
     29 O          60.6630   86.0695   10.2071 O.3     1  UNL1       -0.4702
     30 C          62.0816   85.5943   10.3163 C.3     1  UNL1        0.2599
     31 C          62.9161   85.4343    9.0802 C.3     1  UNL1        0.0566
     32 C          62.6656   85.2792   11.6615 C.3     1  UNL1        0.4340
     33 F          63.2497   84.9640   13.0068 F       1  UNL1       -0.1664
     34 F          62.9048   86.7407   11.9001 F       1  UNL1       -0.1664
     35 F          62.4264   83.8178   11.4230 F       1  UNL1       -0.1664
@<TRIPOS>BOND
     1    27    28    1
     2    28    24    1
     3    24    25    2
     4    24    26    2
     5    24     1    1
     6     1     2   ar
     7     2     3   ar
     8     3     4   ar
     9     4    29    1
    10    29    30    1
    11    30    31    1
    12    30    32    1
    13    32    33    1
    14    32    34    1
    15    32    35    1
    16     4     5   ar
    17     5     7    1
    18     7     8    2
    19     7     9   am
    20     9    10    1
    21    10    11    1
    22    11    12   ar
    23    12    13   ar
    24    13    17    1
    25    17    18   ar
    26    18    19   ar
    27    19    20   ar
    28    20    21   ar
    29    21    22   ar
    30    22    23    1
    31    13    14   ar
    32    14    15   ar
    33    15    16    1
    34     5     6   ar
    35     6     1   ar
    36    16     9    1
    37    15    11   ar
    38    22    17   ar
@<TRIPOS>MOLECULE
*****
 35 38 0 0 0
SMALL
GASTEIGER

@<TRIPOS>ATOM
      1 C          59.5524   89.1475    7.1358 C.ar    1  UNL1        0.1060
      2 C          59.9095   87.7557    6.7052 C.ar    1  UNL1        0.0215
      3 C          60.2782   86.7247    7.7304 C.ar    1  UNL1        0.0384
      4 C          60.2898   87.0856    9.1863 C.ar    1  UNL1        0.1432
      5 C          59.9327   88.4774    9.6170 C.ar    1  UNL1        0.0888
      6 C          59.5640   89.5083    8.5917 C.ar    1  UNL1        0.0259
      7 C          59.9444   88.8381   11.0729 C.2     1  UNL1        0.2525
      8 O          58.7264   88.5981   11.9148 O.2     1  UNL1       -0.2698
      9 N          61.1741   89.4389   11.6870 N.am    1  UNL1       -0.2660
     10 C          62.4603   89.7356   10.9746 C.3     1  UNL1        0.1236
     11 C          63.4145   90.3285   11.9685 C.ar    1  UNL1        0.0338
     12 C          64.7992   90.8784   12.1426 C.ar    1  UNL1        0.0991
     13 N          64.9585   91.2879   13.5768 N.ar    1  UNL1       -0.2265
     14 N          63.6722   90.9911   14.2892 N.ar    1  UNL1       -0.1679
     15 C          62.7180   90.3982   13.2952 C.ar    1  UNL1        0.0981
     16 C          61.3333   89.8484   13.1212 C.3     1  UNL1        0.1414
     17 C          66.1881   91.8886   14.1908 C.ar    1  UNL1        0.1102
     18 C          66.1636   92.3542   15.6165 C.ar    1  UNL1        0.0214
     19 C          67.3933   92.9550   16.2306 C.ar    1  UNL1        0.0017
     20 C          68.6474   93.0902   15.4189 C.ar    1  UNL1        0.0024
     21 C          68.6719   92.6246   13.9931 C.ar    1  UNL1        0.0312
     22 C          67.4423   92.0239   13.3791 C.ar    1  UNL1        0.1577
     23 F          67.4668   91.5583   11.9534 F       1  UNL1       -0.2026
     24 S          59.1837   90.1785    6.1106 S.O2    1  UNL1        0.0087
     25 O          60.6375   90.4585    5.8694 O.2     1  UNL1       -0.1686
     26 O          57.7299   89.8985    6.3518 O.2     1  UNL1       -0.1686
     27 C          57.3758   91.5755    4.8737 C.3     1  UNL1        0.0276
     28 C          58.8150   91.2095    5.0854 C.3     1  UNL1        0.1560
     29 O          60.6585   86.0546   10.2116 O.3     1  UNL1       -0.4702
     30 C          62.0828   85.6024   10.3419 C.3     1  UNL1        0.2599
     31 C          62.9328   85.4387    9.1169 C.3     1  UNL1        0.0566
     32 C          62.6570   85.3137   11.6972 C.3     1  UNL1        0.4340
     33 F          63.2314   85.0251   13.0526 F       1  UNL1       -0.1664
     34 F          62.3548   83.8558   11.5148 F       1  UNL1       -0.1664
     35 F          62.9593   86.7715   11.8796 F       1  UNL1       -0.1664
@<TRIPOS>BOND
     1    27    28    1
     2    28    24    1
     3    24    25    2
     4    24    26    2
     5    24     1    1
     6     1     2   ar
     7     2     3   ar
     8     3     4   ar
     9     4    29    1
    10    29    30    1
    11    30    31    1
    12    30    32    1
    13    32    33    1
    14    32    34    1
    15    32    35    1
    16     4     5   ar
    17     5     7    1
    18     7     8    2
    19     7     9   am
    20     9    10    1
    21    10    11    1
    22    11    12   ar
    23    12    13   ar
    24    13    17    1
    25    17    18   ar
    26    18    19   ar
    27    19    20   ar
    28    20    21   ar
    29    21    22   ar
    30    22    23    1
    31    13    14   ar
    32    14    15   ar
    33    15    16    1
    34     5     6   ar
    35     6     1   ar
    36    16     9    1
    37    15    11   ar
    38    22    17   ar
@<TRIPOS>MOLECULE
*****
 35 38 0 0 0
SMALL
GASTEIGER

@<TRIPOS>ATOM
      1 C          62.0508   90.0442   11.1255 C.ar    1  UNL1        0.1060
      2 C          62.7740   91.3544   11.2276 C.ar    1  UNL1        0.0215
      3 C          63.8846   91.5226   12.2217 C.ar    1  UNL1        0.0384
      4 C          64.2720   90.3804   13.1138 C.ar    1  UNL1        0.1432
      5 C          63.5488   89.0703   13.0117 C.ar    1  UNL1        0.0888
      6 C          62.4382   88.9022   12.0175 C.ar    1  UNL1        0.0259
      7 C          63.9362   87.9283   13.9037 C.2     1  UNL1        0.2525
      8 O          64.5152   88.1995   15.2606 O.2     1  UNL1       -0.2698
      9 N          63.7445   86.5150   13.4388 N.am    1  UNL1       -0.2660
     10 C          63.1805   86.0911   12.1152 C.3     1  UNL1        0.1236
     11 C          63.1707   84.5917   12.0744 C.ar    1  UNL1        0.0338
     12 C          62.8160   83.4030   11.2310 C.ar    1  UNL1        0.0991
     13 N          63.1548   82.1655   12.0082 N.ar    1  UNL1       -0.2265
     14 N          63.7189   82.5896   13.3320 N.ar    1  UNL1       -0.1679
     15 C          63.7287   84.0890   13.3728 C.ar    1  UNL1        0.0981
     16 C          64.0833   85.2777   14.2161 C.3     1  UNL1        0.1414
     17 C          62.9632   80.7524   11.5434 C.ar    1  UNL1        0.1102
     18 C          63.0912   80.4181   10.0868 C.ar    1  UNL1        0.0214
     19 C          62.8996   79.0048    9.6219 C.ar    1  UNL1        0.0017
     20 C          62.5799   77.9259   10.6138 C.ar    1  UNL1        0.0024
     21 C          62.4519   78.2602   12.0705 C.ar    1  UNL1        0.0312
     22 C          62.6435   79.6734   12.5353 C.ar    1  UNL1        0.1577
     23 F          62.5155   80.0077   13.9919 F       1  UNL1       -0.2026
     24 S          60.9402   89.8761   10.1314 S.O2    1  UNL1        0.0087
     25 O          60.1394   90.9218   10.8491 O.2     1  UNL1       -0.1686
     26 O          61.7410   88.8304    9.4136 O.2     1  UNL1       -0.1686
     27 C          59.8260   88.5297    8.2089 C.3     1  UNL1        0.0276
     28 C          59.8296   89.7079    9.1372 C.3     1  UNL1        0.1560
     29 O          65.3826   90.5486   14.1079 O.3     1  UNL1       -0.4702
     30 C          65.2852   91.6034   15.1699 C.3     1  UNL1        0.2599
     31 C          64.1412   91.5878   16.1399 C.3     1  UNL1        0.0566
     32 C          66.3319   92.6739   15.2619 C.3     1  UNL1        0.4340
     33 F          67.3786   93.7445   15.3539 F       1  UNL1       -0.1664
     34 F          66.0991   92.7746   16.7403 F       1  UNL1       -0.1664
     35 F          66.5648   92.5733   13.7835 F       1  UNL1       -0.1664
@<TRIPOS>BOND
     1    27    28    1
     2    28    24    1
     3    24    25    2
     4    24    26    2
     5    24     1    1
     6     1     2   ar
     7     2     3   ar
     8     3     4   ar
     9     4    29    1
    10    29    30    1
    11    30    31    1
    12    30    32    1
    13    32    33    1
    14    32    34    1
    15    32    35    1
    16     4     5   ar
    17     5     7    1
    18     7     8    2
    19     7     9   am
    20     9    10    1
    21    10    11    1
    22    11    12   ar
    23    12    13   ar
    24    13    17    1
    25    17    18   ar
    26    18    19   ar
    27    19    20   ar
    28    20    21   ar
    29    21    22   ar
    30    22    23    1
    31    13    14   ar
    32    14    15   ar
    33    15    16    1
    34     5     6   ar
    35     6     1   ar
    36    16     9    1
    37    15    11   ar
    38    22    17   ar
