@<TRIPOS>MOLECULE
*****
 39 42 0 0 0
SMALL
GASTEIGER

@<TRIPOS>ATOM
      1 C          63.9586   90.0394   13.7675 C.2     1  UNL1        0.2522
      2 O          63.3462   90.7257   14.9523 O.2     1  UNL1       -0.2699
      3 N          64.7095   90.8380   12.7435 N.am    1  UNL1       -0.2981
      4 H          65.1115   90.3876   11.9659 H       1  UNL1        0.1498
      5 C          63.9115   83.1790   14.1941 C.ar    1  UNL1        0.1414
      6 C          64.5563   83.7431   15.4253 C.ar    1  UNL1        0.0371
      7 C          64.6947   85.2280   15.5863 C.ar    1  UNL1        0.0062
      8 C          64.1883   86.1488   14.5160 C.ar    1  UNL1        0.0352
      9 C          64.3267   87.6337   14.6769 C.ar    1  UNL1        0.0141
     10 C          63.8203   88.5545   13.6066 C.ar    1  UNL1        0.1293
     11 C          63.1754   87.9904   12.3753 C.ar    1  UNL1        0.3502
     12 O          62.6689   88.9112   11.3050 O.2     1  UNL1       -0.2443
     13 O          63.0370   86.5055   12.2144 O.2     1  UNL1       -0.4208
     14 C          63.5435   85.5847   13.2848 C.ar    1  UNL1        0.1517
     15 C          63.4051   84.0998   13.1238 C.ar    1  UNL1        0.0744
     16 O          63.7731   81.6941   14.0332 O.3     1  UNL1       -0.4791
     17 C          62.5098   81.1154   13.4684 C.3     1  UNL1        0.1659
     18 C          63.0604   81.0239   10.9309 C.3     1  UNL1        0.0038
     19 C          62.5446   80.3597   12.1731 C.3     1  UNL1        0.0435
     20 C          61.2116   81.2924   14.1988 C.3     1  UNL1        0.0435
     21 C          60.1658   80.2187   14.1405 C.3     1  UNL1        0.0038
     22 C          64.8479   92.3229   12.9044 C.3     1  UNL1        0.1229
     23 C          65.4984   93.1369   11.8254 C.3     1  UNL1        0.1477
     24 O          64.7369   92.3681   10.7865 O.3     1  UNL1       -0.3790
     25 H          64.1762   91.7062   11.2205 H       1  UNL1        0.2108
     26 C          66.1489   93.9509   10.7463 C.ar    1  UNL1        0.0328
     27 C          65.6925   95.3563   10.4888 C.ar    1  UNL1        0.0026
     28 C          66.3429   96.1702    9.4097 C.ar    1  UNL1        0.0295
     29 C          67.4499   95.5787    8.5882 C.ar    1  UNL1        0.1424
     30 F          68.1003   96.3927    7.5091 F       1  UNL1       -0.2041
     31 C          67.9063   94.1733    8.8458 C.ar    1  UNL1        0.0590
     32 C          67.2558   93.3593    9.9248 C.ar    1  UNL1        0.1406
     33 F          67.7122   91.9538   10.1824 F       1  UNL1       -0.2043
     34 C          66.2598   93.9056   12.8642 C.3     1  UNL1        0.1403
     35 N          67.0631   93.1749   13.8990 N.ar    1  UNL1       -0.3050
     36 C          67.1258   93.5043   15.3610 C.ar    1  UNL1        0.0981
     37 C          68.0462   92.5195   16.0191 C.ar    1  UNL1        0.1193
     38 N          68.5524   91.5814   14.9638 N.ar    1  UNL1       -0.2223
     39 C          67.9449   91.9864   13.6534 C.ar    1  UNL1        0.1787
@<TRIPOS>BOND
     1    18    19    1
     2    19    17    1
     3    17    20    1
     4    20    21    1
     5    17    16    1
     6    16     5    1
     7     5     6   ar
     8     6     7   ar
     9     7     8   ar
    10     8     9   ar
    11     9    10   ar
    12    10     1    1
    13     1     2    2
    14     1     3   am
    15     3    22    1
    16    22    23    1
    17    23    24    1
    18    23    34    1
    19    34    35    1
    20    35    36   ar
    21    36    37   ar
    22    37    38   ar
    23    38    39   ar
    24    23    26    1
    25    26    27   ar
    26    27    28   ar
    27    28    29   ar
    28    29    30    1
    29    29    31   ar
    30    31    32   ar
    31    32    33    1
    32    10    11   ar
    33    11    12    2
    34    11    13   ar
    35    13    14   ar
    36    14    15   ar
    37    15     5   ar
    38    14     8   ar
    39    39    35   ar
    40    32    26   ar
    41     3     4    1
    42    24    25    1
@<TRIPOS>MOLECULE
*****
 39 42 0 0 0
SMALL
GASTEIGER

@<TRIPOS>ATOM
      1 C          64.0002   90.3521   13.6791 C.2     1  UNL1        0.2522
      2 O          63.4343   91.0526   14.8787 O.2     1  UNL1       -0.2699
      3 N          64.7284   91.1354   12.6273 N.am    1  UNL1       -0.2981
      4 H          65.0998   90.6756   11.8400 H       1  UNL1        0.1498
      5 C          63.8755   83.4954   14.1488 C.ar    1  UNL1        0.1414
      6 C          64.5624   84.0580   15.3578 C.ar    1  UNL1        0.0371
      7 C          64.7247   85.5418   15.5056 C.ar    1  UNL1        0.0062
      8 C          64.2001   86.4631   14.4445 C.ar    1  UNL1        0.0352
      9 C          64.3625   87.9469   14.5924 C.ar    1  UNL1        0.0141
     10 C          63.8379   88.8682   13.5313 C.ar    1  UNL1        0.1293
     11 C          63.1509   88.3057   12.3223 C.ar    1  UNL1        0.3502
     12 O          62.6263   89.2270   11.2612 O.2     1  UNL1       -0.2443
     13 O          62.9886   86.8218   12.1744 O.2     1  UNL1       -0.4208
     14 C          63.5132   85.9005   13.2356 C.ar    1  UNL1        0.1517
     15 C          63.3509   84.4167   13.0877 C.ar    1  UNL1        0.0744
     16 O          63.7132   82.0116   14.0010 O.3     1  UNL1       -0.4791
     17 C          62.7252   81.4596   13.0166 C.3     1  UNL1        0.1659
     18 C          60.5211   80.6701   14.1432 C.3     1  UNL1        0.0038
     19 C          61.7988   80.3525   13.4243 C.3     1  UNL1        0.0435
     20 C          62.6634   82.0147   11.6244 C.3     1  UNL1        0.0435
     21 C          63.4252   81.3489   10.5171 C.3     1  UNL1        0.0038
     22 C          64.8907   92.6192   12.7752 C.3     1  UNL1        0.1229
     23 C          65.5673   93.4109   11.6957 C.3     1  UNL1        0.1477
     24 O          64.7111   92.7371   10.6648 O.3     1  UNL1       -0.3790
     25 H          64.1140   92.1091   11.1008 H       1  UNL1        0.2108
     26 C          66.2439   94.2027   10.6162 C.ar    1  UNL1        0.0328
     27 C          67.1851   93.5237    9.6659 C.ar    1  UNL1        0.0026
     28 C          67.8617   94.3155    8.5864 C.ar    1  UNL1        0.0295
     29 C          67.5971   95.7863    8.4572 C.ar    1  UNL1        0.1424
     30 F          68.2737   96.5781    7.3777 F       1  UNL1       -0.2041
     31 C          66.6559   96.4653    9.4075 C.ar    1  UNL1        0.0590
     32 C          65.9793   95.6735   10.4869 C.ar    1  UNL1        0.1406
     33 F          65.0381   96.3526   11.4373 F       1  UNL1       -0.2043
     34 C          66.4235   94.0848   12.7265 C.3     1  UNL1        0.1403
     35 N          67.0832   93.2723   13.8011 N.ar    1  UNL1       -0.3050
     36 C          67.1402   93.6192   15.2593 C.ar    1  UNL1        0.0981
     37 C          67.8940   92.5315   15.9655 C.ar    1  UNL1        0.1193
     38 N          68.3028   91.5123   14.9437 N.ar    1  UNL1       -0.2223
     39 C          67.8018   91.9700   13.6060 C.ar    1  UNL1        0.1787
@<TRIPOS>BOND
     1    18    19    1
     2    19    17    1
     3    17    20    1
     4    20    21    1
     5    17    16    1
     6    16     5    1
     7     5     6   ar
     8     6     7   ar
     9     7     8   ar
    10     8     9   ar
    11     9    10   ar
    12    10     1    1
    13     1     2    2
    14     1     3   am
    15     3    22    1
    16    22    23    1
    17    23    24    1
    18    23    34    1
    19    34    35    1
    20    35    36   ar
    21    36    37   ar
    22    37    38   ar
    23    38    39   ar
    24    23    26    1
    25    26    27   ar
    26    27    28   ar
    27    28    29   ar
    28    29    30    1
    29    29    31   ar
    30    31    32   ar
    31    32    33    1
    32    10    11   ar
    33    11    12    2
    34    11    13   ar
    35    13    14   ar
    36    14    15   ar
    37    15     5   ar
    38    14     8   ar
    39    39    35   ar
    40    32    26   ar
    41     3     4    1
    42    24    25    1
@<TRIPOS>MOLECULE
*****
 39 42 0 0 0
SMALL
GASTEIGER

@<TRIPOS>ATOM
      1 C          59.4939   89.5437    6.9466 C.2     1  UNL1        0.2522
      2 O          58.6574   88.3025    6.8489 O.2     1  UNL1       -0.2699
      3 N          60.2140   89.8642    8.2229 N.am    1  UNL1       -0.2981
      4 H          60.7631   90.6789    8.2870 H       1  UNL1        0.1498
      5 C          61.2975   93.4691    1.5999 C.ar    1  UNL1        0.1414
      6 C          62.5192   92.7908    2.1452 C.ar    1  UNL1        0.0371
      7 C          62.4028   91.8700    3.3237 C.ar    1  UNL1        0.0062
      8 C          61.0647   91.6276    3.9567 C.ar    1  UNL1        0.0352
      9 C          60.9483   90.7069    5.1351 C.ar    1  UNL1        0.0141
     10 C          59.6103   90.4644    5.7682 C.ar    1  UNL1        0.1293
     11 C          58.3885   91.1427    5.2229 C.ar    1  UNL1        0.3502
     12 O          57.0505   90.9003    5.8559 O.2     1  UNL1       -0.2443
     13 O          58.5050   92.0635    4.0444 O.2     1  UNL1       -0.4208
     14 C          59.8431   92.3059    3.4114 C.ar    1  UNL1        0.1517
     15 C          59.9595   93.2266    2.2329 C.ar    1  UNL1        0.0744
     16 O          61.4139   94.3898    0.4214 O.3     1  UNL1       -0.4791
     17 C          61.3085   93.8426   -0.9712 C.3     1  UNL1        0.1659
     18 C          63.8967   93.8237   -1.1970 C.3     1  UNL1        0.0038
     19 C          62.5453   93.4167   -1.7052 C.3     1  UNL1        0.0435
     20 C          59.9663   93.7214   -1.6298 C.3     1  UNL1        0.0435
     21 C          59.0702   92.5649   -1.2989 C.3     1  UNL1        0.0038
     22 C          60.0976   88.9435    9.4013 C.3     1  UNL1        0.1229
     23 C          60.9487   87.7106    9.4768 C.3     1  UNL1        0.1477
     24 O          59.7135   86.8611    9.5282 O.3     1  UNL1       -0.3790
     25 H          58.9284   87.4297    9.4933 H       1  UNL1        0.2108
     26 C          61.7998   86.4777    9.5522 C.ar    1  UNL1        0.0328
     27 C          62.5670   86.0210    8.3469 C.ar    1  UNL1        0.0026
     28 C          63.4180   84.7882    8.4224 C.ar    1  UNL1        0.0295
     29 C          63.5020   84.0121    9.7032 C.ar    1  UNL1        0.1424
     30 F          64.3531   82.7792    9.7787 F       1  UNL1       -0.2041
     31 C          62.7349   84.4688   10.9086 C.ar    1  UNL1        0.0590
     32 C          61.8838   85.7016   10.8331 C.ar    1  UNL1        0.1406
     33 F          61.1166   86.1584   12.0385 F       1  UNL1       -0.2043
     34 C          62.1838   88.5601    9.4253 C.3     1  UNL1        0.1403
     35 N          62.6046   89.3457   10.6319 N.ar    1  UNL1       -0.3050
     36 C          62.8428   88.7920   12.0054 C.ar    1  UNL1        0.0981
     37 C          63.2465   89.9270   12.8992 C.ar    1  UNL1        0.1193
     38 N          63.2579   91.1822   12.0780 N.ar    1  UNL1       -0.2223
     39 C          62.8612   90.8230   10.6766 C.ar    1  UNL1        0.1787
@<TRIPOS>BOND
     1    18    19    1
     2    19    17    1
     3    17    20    1
     4    20    21    1
     5    17    16    1
     6    16     5    1
     7     5     6   ar
     8     6     7   ar
     9     7     8   ar
    10     8     9   ar
    11     9    10   ar
    12    10     1    1
    13     1     2    2
    14     1     3   am
    15     3    22    1
    16    22    23    1
    17    23    24    1
    18    23    34    1
    19    34    35    1
    20    35    36   ar
    21    36    37   ar
    22    37    38   ar
    23    38    39   ar
    24    23    26    1
    25    26    27   ar
    26    27    28   ar
    27    28    29   ar
    28    29    30    1
    29    29    31   ar
    30    31    32   ar
    31    32    33    1
    32    10    11   ar
    33    11    12    2
    34    11    13   ar
    35    13    14   ar
    36    14    15   ar
    37    15     5   ar
    38    14     8   ar
    39    39    35   ar
    40    32    26   ar
    41     3     4    1
    42    24    25    1
@<TRIPOS>MOLECULE
*****
 39 42 0 0 0
SMALL
GASTEIGER

@<TRIPOS>ATOM
      1 C          64.0569   89.7342   15.0096 C.2     1  UNL1        0.2522
      2 O          63.1460   90.6841   15.7291 O.2     1  UNL1       -0.2699
      3 N          65.1754   90.2644   14.1622 N.am    1  UNL1       -0.2981
      4 H          65.7733   89.6409   13.6899 H       1  UNL1        0.1498
      5 C          63.4812   82.9168   14.3454 C.ar    1  UNL1        0.1414
      6 C          63.9431   83.4998   13.0428 C.ar    1  UNL1        0.0371
      7 C          64.1506   84.9798   12.9151 C.ar    1  UNL1        0.0062
      8 C          63.8962   85.8770   14.0900 C.ar    1  UNL1        0.0352
      9 C          64.1038   87.3570   13.9623 C.ar    1  UNL1        0.0141
     10 C          63.8494   88.2541   15.1372 C.ar    1  UNL1        0.1293
     11 C          63.3874   87.6712   16.4399 C.ar    1  UNL1        0.3502
     12 O          63.1331   88.5683   17.6148 O.2     1  UNL1       -0.2443
     13 O          63.1799   86.1911   16.5676 O.2     1  UNL1       -0.4208
     14 C          63.4343   85.2940   15.3926 C.ar    1  UNL1        0.1517
     15 C          63.2268   83.8139   15.5203 C.ar    1  UNL1        0.0744
     16 O          63.2737   81.4367   14.4730 O.3     1  UNL1       -0.4791
     17 C          62.1244   80.7771   13.7702 C.3     1  UNL1        0.1659
     18 C          59.6841   79.9899   14.1890 C.3     1  UNL1        0.0038
     19 C          60.7161   81.0786   14.1894 C.3     1  UNL1        0.0435
     20 C          62.3834   79.8160   12.6480 C.3     1  UNL1        0.0435
     21 C          62.7664   80.3314   11.2924 C.3     1  UNL1        0.0038
     22 C          65.3830   91.7445   14.0346 C.3     1  UNL1        0.1229
     23 C          65.9830   92.3124   12.7826 C.3     1  UNL1        0.1477
     24 O          64.6197   92.7342   12.3206 O.3     1  UNL1       -0.3790
     25 H          63.9600   92.4788   12.9843 H       1  UNL1        0.2108
     26 C          66.5831   92.8804   11.5307 C.ar    1  UNL1        0.0328
     27 C          67.2957   91.9804   10.5653 C.ar    1  UNL1        0.0026
     28 C          67.8957   92.5484    9.3134 C.ar    1  UNL1        0.0295
     29 C          67.7832   94.0164    9.0269 C.ar    1  UNL1        0.1424
     30 F          68.3833   94.5844    7.7749 F       1  UNL1       -0.2041
     31 C          67.0706   94.9165    9.9923 C.ar    1  UNL1        0.0590
     32 C          66.4705   94.3485   11.2442 C.ar    1  UNL1        0.1406
     33 F          65.7579   95.2486   12.2097 F       1  UNL1       -0.2043
     34 C          67.3463   91.8907   13.2447 C.3     1  UNL1        0.1403
     35 N          68.0347   92.6491   14.3406 N.ar    1  UNL1       -0.3050
     36 C          67.3660   93.5044   15.3756 C.ar    1  UNL1        0.0981
     37 C          68.4307   94.0693   16.2685 C.ar    1  UNL1        0.1193
     38 N          69.7575   93.5631   15.7854 N.ar    1  UNL1       -0.2223
     39 C          69.5128   92.6854   14.5938 C.ar    1  UNL1        0.1787
@<TRIPOS>BOND
     1    18    19    1
     2    19    17    1
     3    17    20    1
     4    20    21    1
     5    17    16    1
     6    16     5    1
     7     5     6   ar
     8     6     7   ar
     9     7     8   ar
    10     8     9   ar
    11     9    10   ar
    12    10     1    1
    13     1     2    2
    14     1     3   am
    15     3    22    1
    16    22    23    1
    17    23    24    1
    18    23    34    1
    19    34    35    1
    20    35    36   ar
    21    36    37   ar
    22    37    38   ar
    23    38    39   ar
    24    23    26    1
    25    26    27   ar
    26    27    28   ar
    27    28    29   ar
    28    29    30    1
    29    29    31   ar
    30    31    32   ar
    31    32    33    1
    32    10    11   ar
    33    11    12    2
    34    11    13   ar
    35    13    14   ar
    36    14    15   ar
    37    15     5   ar
    38    14     8   ar
    39    39    35   ar
    40    32    26   ar
    41     3     4    1
    42    24    25    1
@<TRIPOS>MOLECULE
*****
 39 42 0 0 0
SMALL
GASTEIGER

@<TRIPOS>ATOM
      1 C          59.4638   89.5352    6.9635 C.2     1  UNL1        0.2522
      2 O          58.5819   88.3241    6.8892 O.2     1  UNL1       -0.2699
      3 N          60.2271   89.8312    8.2203 N.am    1  UNL1       -0.2981
      4 H          60.8059   90.6261    8.2691 H       1  UNL1        0.1498
      5 C          61.2785   93.4428    1.6074 C.ar    1  UNL1        0.1414
      6 C          62.5006   92.7747    2.1642 C.ar    1  UNL1        0.0371
      7 C          62.3820   91.8596    3.3468 C.ar    1  UNL1        0.0062
      8 C          61.0414   91.6125    3.9726 C.ar    1  UNL1        0.0352
      9 C          60.9229   90.6974    5.1551 C.ar    1  UNL1        0.0141
     10 C          59.5823   90.4503    5.7809 C.ar    1  UNL1        0.1293
     11 C          58.3601   91.1184    5.2241 C.ar    1  UNL1        0.3502
     12 O          57.0194   90.8713    5.8498 O.2     1  UNL1       -0.2443
     13 O          58.4786   92.0335    4.0415 O.2     1  UNL1       -0.4208
     14 C          59.8193   92.2806    3.4157 C.ar    1  UNL1        0.1517
     15 C          59.9378   93.1957    2.2331 C.ar    1  UNL1        0.0744
     16 O          61.3970   94.3579    0.4248 O.3     1  UNL1       -0.4791
     17 C          62.6805   94.4213   -0.3488 C.3     1  UNL1        0.1659
     18 C          62.0267   93.5366   -2.7025 C.3     1  UNL1        0.0038
     19 C          62.9133   93.4807   -1.4938 C.3     1  UNL1        0.0435
     20 C          63.7313   95.4253    0.0225 C.3     1  UNL1        0.0435
     21 C          65.0568   94.9631    0.5509 C.3     1  UNL1        0.0038
     22 C          60.1086   88.9161    9.4029 C.3     1  UNL1        0.1229
     23 C          60.9569   87.6817    9.4840 C.3     1  UNL1        0.1477
     24 O          59.7201   86.8371    9.5660 O.3     1  UNL1       -0.3790
     25 H          58.9363   87.4076    9.5342 H       1  UNL1        0.2108
     26 C          61.8053   86.4473    9.5652 C.ar    1  UNL1        0.0328
     27 C          62.5508   85.9687    8.3547 C.ar    1  UNL1        0.0026
     28 C          63.3992   84.7344    8.4359 C.ar    1  UNL1        0.0295
     29 C          63.5020   83.9786    9.7275 C.ar    1  UNL1        0.1424
     30 F          64.3504   82.7441    9.8086 F       1  UNL1       -0.2041
     31 C          62.7565   84.4571   10.9379 C.ar    1  UNL1        0.0590
     32 C          61.9082   85.6915   10.8567 C.ar    1  UNL1        0.1406
     33 F          61.1626   86.1701   12.0672 F       1  UNL1       -0.2043
     34 C          62.1938   88.5263    9.4021 C.3     1  UNL1        0.1403
     35 N          62.6341   89.3288   10.5905 N.ar    1  UNL1       -0.3050
     36 C          62.9373   90.7978   10.5991 C.ar    1  UNL1        0.0981
     37 C          63.3391   91.1800   11.9928 C.ar    1  UNL1        0.1193
     38 N          63.2842   89.9473   12.8456 N.ar    1  UNL1       -0.2223
     39 C          62.8485   88.8031   11.9790 C.ar    1  UNL1        0.1787
@<TRIPOS>BOND
     1    18    19    1
     2    19    17    1
     3    17    20    1
     4    20    21    1
     5    17    16    1
     6    16     5    1
     7     5     6   ar
     8     6     7   ar
     9     7     8   ar
    10     8     9   ar
    11     9    10   ar
    12    10     1    1
    13     1     2    2
    14     1     3   am
    15     3    22    1
    16    22    23    1
    17    23    24    1
    18    23    34    1
    19    34    35    1
    20    35    36   ar
    21    36    37   ar
    22    37    38   ar
    23    38    39   ar
    24    23    26    1
    25    26    27   ar
    26    27    28   ar
    27    28    29   ar
    28    29    30    1
    29    29    31   ar
    30    31    32   ar
    31    32    33    1
    32    10    11   ar
    33    11    12    2
    34    11    13   ar
    35    13    14   ar
    36    14    15   ar
    37    15     5   ar
    38    14     8   ar
    39    39    35   ar
    40    32    26   ar
    41     3     4    1
    42    24    25    1
@<TRIPOS>MOLECULE
*****
 39 42 0 0 0
SMALL
GASTEIGER

@<TRIPOS>ATOM
      1 C          64.0504   89.8379   15.3821 C.2     1  UNL1        0.2522
      2 O          63.1135   90.7425   16.1263 O.2     1  UNL1       -0.2699
      3 N          65.1708   90.4206   14.5726 N.am    1  UNL1       -0.2981
      4 H          65.7858   89.8269   14.0842 H       1  UNL1        0.1498
      5 C          63.6138   83.0429   14.4405 C.ar    1  UNL1        0.1414
      6 C          64.0941   83.6844   13.1726 C.ar    1  UNL1        0.0371
      7 C          64.2775   85.1717   13.1073 C.ar    1  UNL1        0.0062
      8 C          63.9805   86.0175   14.3100 C.ar    1  UNL1        0.0352
      9 C          64.1639   87.5048   14.2447 C.ar    1  UNL1        0.0141
     10 C          63.8670   88.3506   15.4474 C.ar    1  UNL1        0.1293
     11 C          63.3867   87.7091   16.7154 C.ar    1  UNL1        0.3502
     12 O          63.0898   88.5548   17.9181 O.2     1  UNL1       -0.2443
     13 O          63.2033   86.2218   16.7807 O.2     1  UNL1       -0.4208
     14 C          63.5002   85.3760   15.5779 C.ar    1  UNL1        0.1517
     15 C          63.3169   83.8886   15.6432 C.ar    1  UNL1        0.0744
     16 O          63.4304   81.5556   14.5058 O.3     1  UNL1       -0.4791
     17 C          62.3072   80.9047   13.7543 C.3     1  UNL1        0.1659
     18 C          59.9092   80.0003   14.1805 C.3     1  UNL1        0.0038
     19 C          60.8872   81.1376   14.1778 C.3     1  UNL1        0.0435
     20 C          62.6040   80.0208   12.5792 C.3     1  UNL1        0.0435
     21 C          62.8475   80.6256   11.2284 C.3     1  UNL1        0.0038
     22 C          65.3542   91.9079   14.5074 C.3     1  UNL1        0.1229
     23 C          65.8456   92.5483   13.2431 C.3     1  UNL1        0.1477
     24 O          66.1597   93.8039   14.0011 O.3     1  UNL1       -0.3790
     25 H          65.9279   93.6842   14.9353 H       1  UNL1        0.2108
     26 C          66.3369   93.1886   11.9787 C.ar    1  UNL1        0.0328
     27 C          65.6579   94.4156   11.4464 C.ar    1  UNL1        0.0026
     28 C          66.1492   95.0559   10.1821 C.ar    1  UNL1        0.0295
     29 C          67.3196   94.4691    9.4500 C.ar    1  UNL1        0.1424
     30 F          67.8110   95.1094    8.1856 F       1  UNL1       -0.2041
     31 C          67.9987   93.2421    9.9823 C.ar    1  UNL1        0.0590
     32 C          67.5073   92.6019   11.2466 C.ar    1  UNL1        0.1406
     33 F          68.1863   91.3748   11.7789 F       1  UNL1       -0.2043
     34 C          65.5314   91.2927   12.4850 C.3     1  UNL1        0.1403
     35 N          64.2435   91.1780   11.7247 N.ar    1  UNL1       -0.3050
     36 C          64.0146   91.6128   10.3074 C.ar    1  UNL1        0.0981
     37 C          62.5880   91.3119    9.9549 C.ar    1  UNL1        0.1193
     38 N          61.9352   90.6911   11.1542 N.ar    1  UNL1       -0.2223
     39 C          62.9583   90.6083   12.2480 C.ar    1  UNL1        0.1787
@<TRIPOS>BOND
     1    18    19    1
     2    19    17    1
     3    17    20    1
     4    20    21    1
     5    17    16    1
     6    16     5    1
     7     5     6   ar
     8     6     7   ar
     9     7     8   ar
    10     8     9   ar
    11     9    10   ar
    12    10     1    1
    13     1     2    2
    14     1     3   am
    15     3    22    1
    16    22    23    1
    17    23    24    1
    18    23    34    1
    19    34    35    1
    20    35    36   ar
    21    36    37   ar
    22    37    38   ar
    23    38    39   ar
    24    23    26    1
    25    26    27   ar
    26    27    28   ar
    27    28    29   ar
    28    29    30    1
    29    29    31   ar
    30    31    32   ar
    31    32    33    1
    32    10    11   ar
    33    11    12    2
    34    11    13   ar
    35    13    14   ar
    36    14    15   ar
    37    15     5   ar
    38    14     8   ar
    39    39    35   ar
    40    32    26   ar
    41     3     4    1
    42    24    25    1
