@<TRIPOS>MOLECULE
*****
 38 43 0 0 0
SMALL
GASTEIGER

@<TRIPOS>ATOM
      1 O          61.9900   86.3562   18.0681 O.2     1  UNL1       -0.2749
      2 C          62.7194   86.2527   16.7615 C.2     1  UNL1        0.2252
      3 N          63.3012   87.4816   16.1280 N.am    1  UNL1       -0.2794
      4 C          63.1534   88.8140   16.8010 C.3     1  UNL1        0.0953
      5 C          63.7351   90.0429   16.1675 C.3     1  UNL1        0.0442
      6 C          64.4647   89.9395   14.8608 C.3     1  UNL1        0.0933
      7 C          64.6124   88.6071   14.1879 C.3     1  UNL1        0.0442
      8 C          64.0306   87.3782   14.8214 C.3     1  UNL1        0.0953
      9 N          65.0464   91.1684   14.2273 N.ar    1  UNL1       -0.2817
     10 C          64.6694   91.7335   12.8900 C.ar    1  UNL1        0.3317
     11 O          63.6446   91.1690   11.9513 O.2     1  UNL1       -0.2463
     12 N          65.4973   92.9623   12.6561 N.ar    1  UNL1       -0.2758
     13 C          66.3859   93.1566   13.8489 C.ar    1  UNL1        0.0800
     14 C          67.4127   94.1999   14.1762 C.ar    1  UNL1        0.0188
     15 C          68.1608   94.1344   15.4746 C.ar    1  UNL1        0.0016
     16 C          67.8822   93.0256   16.4457 C.ar    1  UNL1        0.0016
     17 C          66.8553   91.9824   16.1184 C.ar    1  UNL1        0.0188
     18 C          66.1072   92.0479   14.8200 C.ar    1  UNL1        0.0796
     19 C          65.4457   93.8424   11.4425 C.3     1  UNL1        0.1373
     20 C          66.4811   93.6979   10.3667 C.ar    1  UNL1        0.0005
     21 C          67.3385   92.4685   10.3112 C.ar    1  UNL1       -0.0024
     22 C          68.3738   92.3239    9.2355 C.ar    1  UNL1       -0.0003
     23 C          68.5517   93.4090    8.2152 C.ar    1  UNL1       -0.0000
     24 C          67.6942   94.6385    8.2707 C.ar    1  UNL1       -0.0003
     25 C          66.6589   94.7830    9.3464 C.ar    1  UNL1       -0.0024
     26 C          62.8672   84.9204   16.0885 C.3     1  UNL1        0.0795
     27 C          61.6582   84.2129   15.5522 C.3     1  UNL1        0.0264
     28 C          61.8059   82.8805   14.8791 C.3     1  UNL1        0.0729
     29 N          63.1627   82.2557   14.7424 N.3     1  UNL1       -0.2689
     30 C          64.3718   82.9632   15.2787 C.3     1  UNL1        0.0729
     31 C          64.2241   84.2956   15.9518 C.3     1  UNL1        0.0264
     32 C          63.3104   80.9233   14.0693 C.3     1  UNL1        0.0992
     33 C          63.2605   80.8292   12.5732 C.ar    1  UNL1       -0.0031
     34 C          63.6939   81.9942   11.7336 C.ar    1  UNL1        0.0178
     35 C          63.6441   81.9001   10.2374 C.ar    1  UNL1        0.0986
     36 N          63.1607   80.6410    9.5808 N.ar    1  UNL1       -0.2423
     37 C          62.7273   79.4760   10.4204 C.ar    1  UNL1        0.0986
     38 C          62.7772   79.5701   11.9166 C.ar    1  UNL1        0.0178
@<TRIPOS>BOND
     1     1     2    2
     2     2    26    1
     3    26    27    1
     4    27    28    1
     5    28    29    1
     6    29    32    1
     7    32    33    1
     8    33    34   ar
     9    34    35   ar
    10    35    36   ar
    11    36    37   ar
    12    37    38   ar
    13    29    30    1
    14    30    31    1
    15     2     3   am
    16     3     4    1
    17     4     5    1
    18     5     6    1
    19     6     9    1
    20     9    10   ar
    21    10    11    2
    22    10    12   ar
    23    12    19    1
    24    19    20    1
    25    20    21   ar
    26    21    22   ar
    27    22    23   ar
    28    23    24   ar
    29    24    25   ar
    30    12    13   ar
    31    13    14   ar
    32    14    15   ar
    33    15    16   ar
    34    16    17   ar
    35    17    18   ar
    36     6     7    1
    37     7     8    1
    38    31    26    1
    39     8     3    1
    40    38    33   ar
    41    18     9   ar
    42    25    20   ar
    43    18    13   ar
@<TRIPOS>MOLECULE
*****
 38 43 0 0 0
SMALL
GASTEIGER

@<TRIPOS>ATOM
      1 O          58.5453   87.4073    7.0317 O.2     1  UNL1       -0.2749
      2 C          59.3958   88.6107    7.3118 C.2     1  UNL1        0.2252
      3 N          60.2137   88.6751    8.5675 N.am    1  UNL1       -0.2794
      4 C          60.1809   87.5362    9.5432 C.3     1  UNL1        0.0953
      5 C          60.9988   87.6007   10.7990 C.3     1  UNL1        0.0442
      6 C          61.8494   88.8041   11.0791 C.3     1  UNL1        0.0933
      7 C          61.8822   89.9429   10.1034 C.3     1  UNL1        0.0442
      8 C          61.0643   89.8784    8.8477 C.3     1  UNL1        0.0953
      9 N          62.6673   88.8685   12.3349 N.ar    1  UNL1       -0.2817
     10 C          63.0109   90.1118   13.1004 C.ar    1  UNL1        0.3317
     11 O          62.5970   91.5090   12.7447 O.2     1  UNL1       -0.2463
     12 N          63.8411   89.7126   14.2842 N.ar    1  UNL1       -0.2758
     13 C          64.0106   88.2226   14.2503 C.ar    1  UNL1        0.0800
     14 C          64.7318   87.2735   15.1608 C.ar    1  UNL1        0.0188
     15 C          64.7275   85.8027   14.8665 C.ar    1  UNL1        0.0016
     16 C          64.0020   85.2810   13.6617 C.ar    1  UNL1        0.0016
     17 C          63.2809   86.2301   12.7512 C.ar    1  UNL1        0.0188
     18 C          63.2851   87.7009   13.0455 C.ar    1  UNL1        0.0796
     19 C          64.4032   90.6405   15.3201 C.3     1  UNL1        0.1373
     20 C          65.6593   91.4095   15.0358 C.ar    1  UNL1        0.0005
     21 C          66.3577   91.2446   13.7186 C.ar    1  UNL1       -0.0024
     22 C          67.6138   92.0136   13.4342 C.ar    1  UNL1       -0.0003
     23 C          68.1715   92.9474   14.4671 C.ar    1  UNL1       -0.0000
     24 C          67.4732   93.1123   15.7843 C.ar    1  UNL1       -0.0003
     25 C          66.2171   92.3434   16.0687 C.ar    1  UNL1       -0.0024
     26 C          59.4286   89.7495    6.3361 C.3     1  UNL1        0.0795
     27 C          60.7235   90.1492    5.6931 C.3     1  UNL1        0.0264
     28 C          60.7562   91.2881    4.7175 C.3     1  UNL1        0.0729
     29 N          59.4941   92.0272    4.3848 N.3     1  UNL1       -0.2689
     30 C          58.1991   91.6275    5.0278 C.3     1  UNL1        0.0729
     31 C          58.1664   90.4886    6.0035 C.3     1  UNL1        0.0264
     32 C          59.5268   93.1661    3.4092 C.3     1  UNL1        0.0992
     33 C          60.2481   93.0141    2.1028 C.ar    1  UNL1       -0.0031
     34 C          59.4781   92.7085    0.8522 C.ar    1  UNL1        0.0178
     35 C          60.1993   92.5564   -0.4542 C.ar    1  UNL1        0.0986
     36 N          61.6903   92.7100   -0.5101 N.ar    1  UNL1       -0.2423
     37 C          62.4603   93.0156    0.7404 C.ar    1  UNL1        0.0986
     38 C          61.7391   93.1677    2.0469 C.ar    1  UNL1        0.0178
@<TRIPOS>BOND
     1     1     2    2
     2     2    26    1
     3    26    27    1
     4    27    28    1
     5    28    29    1
     6    29    32    1
     7    32    33    1
     8    33    34   ar
     9    34    35   ar
    10    35    36   ar
    11    36    37   ar
    12    37    38   ar
    13    29    30    1
    14    30    31    1
    15     2     3   am
    16     3     4    1
    17     4     5    1
    18     5     6    1
    19     6     9    1
    20     9    10   ar
    21    10    11    2
    22    10    12   ar
    23    12    19    1
    24    19    20    1
    25    20    21   ar
    26    21    22   ar
    27    22    23   ar
    28    23    24   ar
    29    24    25   ar
    30    12    13   ar
    31    13    14   ar
    32    14    15   ar
    33    15    16   ar
    34    16    17   ar
    35    17    18   ar
    36     6     7    1
    37     7     8    1
    38    31    26    1
    39     8     3    1
    40    38    33   ar
    41    18     9   ar
    42    25    20   ar
    43    18    13   ar
@<TRIPOS>MOLECULE
*****
 38 43 0 0 0
SMALL
GASTEIGER

@<TRIPOS>ATOM
      1 O          58.2144   87.7678    6.8213 O.2     1  UNL1       -0.2749
      2 C          59.2239   88.8479    7.0749 C.2     1  UNL1        0.2252
      3 N          60.1091   88.7783    8.2838 N.am    1  UNL1       -0.2794
      4 C          59.9848   87.6285    9.2391 C.3     1  UNL1        0.0953
      5 C          60.8701   87.5589   10.4481 C.3     1  UNL1        0.0442
      6 C          61.8796   88.6391   10.7017 C.3     1  UNL1        0.0933
      7 C          62.0038   89.7887    9.7464 C.3     1  UNL1        0.0442
      8 C          61.1185   89.8584    8.5374 C.3     1  UNL1        0.0953
      9 N          62.7648   88.5695   11.9107 N.ar    1  UNL1       -0.2817
     10 C          63.0256   87.3494   12.7434 C.ar    1  UNL1        0.3317
     11 O          62.4469   85.9847   12.5134 O.2     1  UNL1       -0.2463
     12 N          63.9666   87.7336   13.8465 N.ar    1  UNL1       -0.2758
     13 C          64.2874   89.1911   13.6955 C.ar    1  UNL1        0.0800
     14 C          65.1599   90.1146   14.4929 C.ar    1  UNL1        0.0188
     15 C          65.2896   91.5547   14.0939 C.ar    1  UNL1        0.0016
     16 C          64.5468   92.0713   12.8974 C.ar    1  UNL1        0.0016
     17 C          63.6744   91.1478   12.1001 C.ar    1  UNL1        0.0188
     18 C          63.5446   89.7077   12.4991 C.ar    1  UNL1        0.0796
     19 C          64.4942   86.8206   14.9133 C.3     1  UNL1        0.1373
     20 C          64.1276   85.3661   14.9044 C.ar    1  UNL1        0.0005
     21 C          62.9411   84.8869   15.6871 C.ar    1  UNL1       -0.0024
     22 C          62.5744   83.4324   15.6782 C.ar    1  UNL1       -0.0003
     23 C          63.3943   82.4572   14.8866 C.ar    1  UNL1       -0.0000
     24 C          64.5808   82.9364   14.1040 C.ar    1  UNL1       -0.0003
     25 C          64.9475   84.3908   14.1128 C.ar    1  UNL1       -0.0024
     26 C          59.3481   89.9976    6.1195 C.3     1  UNL1        0.0795
     27 C          60.6817   90.3350    5.5214 C.3     1  UNL1        0.0264
     28 C          60.8059   91.4847    4.5661 C.3     1  UNL1        0.0729
     29 N          59.5966   92.2971    4.2089 N.3     1  UNL1       -0.2689
     30 C          58.2629   91.9597    4.8070 C.3     1  UNL1        0.0729
     31 C          58.1387   90.8099    5.7624 C.3     1  UNL1        0.0264
     32 C          59.7208   93.4468    3.2536 C.3     1  UNL1        0.0992
     33 C          60.3310   93.2346    1.8998 C.ar    1  UNL1       -0.0031
     34 C          59.4918   92.7090    0.7731 C.ar    1  UNL1        0.0178
     35 C          60.1018   92.4967   -0.5807 C.ar    1  UNL1        0.0986
     36 N          61.5511   92.8101   -0.8077 N.ar    1  UNL1       -0.2423
     37 C          62.3902   93.3357    0.3190 C.ar    1  UNL1        0.0986
     38 C          61.7802   93.5480    1.6728 C.ar    1  UNL1        0.0178
@<TRIPOS>BOND
     1     1     2    2
     2     2    26    1
     3    26    27    1
     4    27    28    1
     5    28    29    1
     6    29    32    1
     7    32    33    1
     8    33    34   ar
     9    34    35   ar
    10    35    36   ar
    11    36    37   ar
    12    37    38   ar
    13    29    30    1
    14    30    31    1
    15     2     3   am
    16     3     4    1
    17     4     5    1
    18     5     6    1
    19     6     9    1
    20     9    10   ar
    21    10    11    2
    22    10    12   ar
    23    12    19    1
    24    19    20    1
    25    20    21   ar
    26    21    22   ar
    27    22    23   ar
    28    23    24   ar
    29    24    25   ar
    30    12    13   ar
    31    13    14   ar
    32    14    15   ar
    33    15    16   ar
    34    16    17   ar
    35    17    18   ar
    36     6     7    1
    37     7     8    1
    38    31    26    1
    39     8     3    1
    40    38    33   ar
    41    18     9   ar
    42    25    20   ar
    43    18    13   ar
@<TRIPOS>MOLECULE
*****
 38 43 0 0 0
SMALL
GASTEIGER

@<TRIPOS>ATOM
      1 O          56.8325   90.0662    6.2646 O.2     1  UNL1       -0.2749
      2 C          58.3308   90.0703    6.3352 C.2     1  UNL1        0.2252
      3 N          59.1270   90.8434    5.3261 N.am    1  UNL1       -0.2794
      4 C          58.4249   91.6125    4.2465 C.3     1  UNL1        0.0953
      5 C          59.2212   92.3856    3.2374 C.3     1  UNL1        0.0442
      6 C          60.7196   92.3897    3.3079 C.3     1  UNL1        0.0933
      7 C          61.4216   91.6207    4.3876 C.3     1  UNL1        0.0442
      8 C          60.6253   90.8475    5.3967 C.3     1  UNL1        0.0953
      9 N          61.5158   93.1629    2.2988 N.ar    1  UNL1       -0.2817
     10 C          62.9095   92.8450    1.8444 C.ar    1  UNL1        0.3317
     11 O          63.7518   91.6982    2.3193 O.2     1  UNL1       -0.2463
     12 N          63.3132   93.8753    0.8318 N.ar    1  UNL1       -0.2758
     13 C          62.1689   94.8299    0.6603 C.ar    1  UNL1        0.0800
     14 C          61.9950   96.0432   -0.2043 C.ar    1  UNL1        0.0188
     15 C          60.7102   96.8162   -0.1622 C.ar    1  UNL1        0.0016
     16 C          59.5994   96.3759    0.7445 C.ar    1  UNL1        0.0016
     17 C          59.7733   95.1626    1.6091 C.ar    1  UNL1        0.0188
     18 C          61.0581   94.3896    1.5670 C.ar    1  UNL1        0.0796
     19 C          64.6299   93.9397    0.1161 C.3     1  UNL1        0.1373
     20 C          64.7547   94.7254   -1.1556 C.ar    1  UNL1        0.0005
     21 C          64.2154   94.1661   -2.4387 C.ar    1  UNL1       -0.0024
     22 C          64.3402   94.9516   -3.7104 C.ar    1  UNL1       -0.0003
     23 C          65.0043   96.2966   -3.6990 C.ar    1  UNL1       -0.0000
     24 C          65.5436   96.8559   -2.4159 C.ar    1  UNL1       -0.0003
     25 C          65.4188   96.0703   -1.1442 C.ar    1  UNL1       -0.0024
     26 C          59.0329   89.3013    7.4148 C.3     1  UNL1        0.0795
     27 C          58.9925   87.8018    7.4150 C.3     1  UNL1        0.0264
     28 C          59.6946   87.0328    8.4946 C.3     1  UNL1        0.0729
     29 N          60.4370   87.7632    9.5741 N.3     1  UNL1       -0.2689
     30 C          60.4774   89.2627    9.5740 C.3     1  UNL1        0.0729
     31 C          59.7753   90.0318    8.4943 C.3     1  UNL1        0.0264
     32 C          61.1391   86.9942   10.6538 C.3     1  UNL1        0.0992
     33 C          62.0411   85.8507   10.2948 C.ar    1  UNL1       -0.0031
     34 C          62.5772   85.7280    8.8993 C.ar    1  UNL1        0.0178
     35 C          63.4792   84.5845    8.5402 C.ar    1  UNL1        0.0986
     36 N          63.8450   83.5638    9.5767 N.ar    1  UNL1       -0.2423
     37 C          63.3089   83.6865   10.9723 C.ar    1  UNL1        0.0986
     38 C          62.4069   84.8300   11.3313 C.ar    1  UNL1        0.0178
@<TRIPOS>BOND
     1     1     2    2
     2     2    26    1
     3    26    27    1
     4    27    28    1
     5    28    29    1
     6    29    32    1
     7    32    33    1
     8    33    34   ar
     9    34    35   ar
    10    35    36   ar
    11    36    37   ar
    12    37    38   ar
    13    29    30    1
    14    30    31    1
    15     2     3   am
    16     3     4    1
    17     4     5    1
    18     5     6    1
    19     6     9    1
    20     9    10   ar
    21    10    11    2
    22    10    12   ar
    23    12    19    1
    24    19    20    1
    25    20    21   ar
    26    21    22   ar
    27    22    23   ar
    28    23    24   ar
    29    24    25   ar
    30    12    13   ar
    31    13    14   ar
    32    14    15   ar
    33    15    16   ar
    34    16    17   ar
    35    17    18   ar
    36     6     7    1
    37     7     8    1
    38    31    26    1
    39     8     3    1
    40    38    33   ar
    41    18     9   ar
    42    25    20   ar
    43    18    13   ar
@<TRIPOS>MOLECULE
*****
 38 43 0 0 0
SMALL
GASTEIGER

@<TRIPOS>ATOM
      1 O          57.1054   90.8348    5.7850 O.2     1  UNL1       -0.2749
      2 C          58.5882   90.6123    5.8260 C.2     1  UNL1        0.2252
      3 N          59.4664   91.2142    4.7693 N.am    1  UNL1       -0.2794
      4 C          58.8617   92.0386    3.6717 C.3     1  UNL1        0.0953
      5 C          59.7398   92.6406    2.6151 C.3     1  UNL1        0.0442
      6 C          61.2227   92.4181    2.6560 C.3     1  UNL1        0.0933
      7 C          61.8273   91.5937    3.7535 C.3     1  UNL1        0.0442
      8 C          60.9492   90.9917    4.8102 C.3     1  UNL1        0.0953
      9 N          62.1008   93.0200    1.5993 N.ar    1  UNL1       -0.2817
     10 C          61.9936   92.7809    0.1224 C.ar    1  UNL1        0.3317
     11 O          60.9894   91.8979   -0.5572 O.2     1  UNL1       -0.2463
     12 N          63.0669   93.5798   -0.5556 N.ar    1  UNL1       -0.2758
     13 C          63.8375   94.3127    0.5022 C.ar    1  UNL1        0.0800
     14 C          65.0056   95.2504    0.4248 C.ar    1  UNL1        0.0188
     15 C          65.5767   95.8421    1.6793 C.ar    1  UNL1        0.0016
     16 C          64.9797   95.4961    3.0111 C.ar    1  UNL1        0.0016
     17 C          63.8115   94.5584    3.0885 C.ar    1  UNL1        0.0188
     18 C          63.2404   93.9667    1.8341 C.ar    1  UNL1        0.0796
     19 C          63.3244   93.6361   -2.0323 C.3     1  UNL1        0.1373
     20 C          62.4464   94.4723   -2.9155 C.ar    1  UNL1        0.0005
     21 C          62.8562   95.8702   -3.2731 C.ar    1  UNL1       -0.0024
     22 C          61.9782   96.7065   -4.1562 C.ar    1  UNL1       -0.0003
     23 C          60.6905   96.1448   -4.6817 C.ar    1  UNL1       -0.0000
     24 C          60.2807   94.7469   -4.3240 C.ar    1  UNL1       -0.0003
     25 C          61.1586   93.9106   -3.4409 C.ar    1  UNL1       -0.0024
     26 C          59.1929   89.7879    6.9236 C.3     1  UNL1        0.0795
     27 C          58.9605   88.3065    6.9639 C.3     1  UNL1        0.0264
     28 C          59.5652   87.4821    8.0615 C.3     1  UNL1        0.0729
     29 N          60.4023   88.1390    9.1187 N.3     1  UNL1       -0.2689
     30 C          60.6348   89.6204    9.0783 C.3     1  UNL1        0.0729
     31 C          60.0301   90.4449    7.9807 C.3     1  UNL1        0.0264
     32 C          61.0070   87.3146   10.2162 C.3     1  UNL1        0.0992
     33 C          61.9076   86.1631    9.8802 C.ar    1  UNL1       -0.0031
     34 C          62.3416   85.2118   10.9557 C.ar    1  UNL1        0.0178
     35 C          63.2421   84.0603   10.6198 C.ar    1  UNL1        0.0986
     36 N          63.7087   83.8600    9.2083 N.ar    1  UNL1       -0.2423
     37 C          63.2747   84.8113    8.1328 C.ar    1  UNL1        0.0986
     38 C          62.3742   85.9629    8.4688 C.ar    1  UNL1        0.0178
@<TRIPOS>BOND
     1     1     2    2
     2     2    26    1
     3    26    27    1
     4    27    28    1
     5    28    29    1
     6    29    32    1
     7    32    33    1
     8    33    34   ar
     9    34    35   ar
    10    35    36   ar
    11    36    37   ar
    12    37    38   ar
    13    29    30    1
    14    30    31    1
    15     2     3   am
    16     3     4    1
    17     4     5    1
    18     5     6    1
    19     6     9    1
    20     9    10   ar
    21    10    11    2
    22    10    12   ar
    23    12    19    1
    24    19    20    1
    25    20    21   ar
    26    21    22   ar
    27    22    23   ar
    28    23    24   ar
    29    24    25   ar
    30    12    13   ar
    31    13    14   ar
    32    14    15   ar
    33    15    16   ar
    34    16    17   ar
    35    17    18   ar
    36     6     7    1
    37     7     8    1
    38    31    26    1
    39     8     3    1
    40    38    33   ar
    41    18     9   ar
    42    25    20   ar
    43    18    13   ar
