@<TRIPOS>MOLECULE
*****
 32 35 0 0 0
SMALL
GASTEIGER

@<TRIPOS>ATOM
      1 C          63.7261   89.1803   15.7784 C.ar    1  UNL1        0.0038
      2 C          64.3008   88.3649   14.6582 C.ar    1  UNL1        0.0965
      3 N          64.2579   86.8669   14.7223 N.ar    1  UNL1       -0.2274
      4 C          63.6404   86.1842   15.9066 C.ar    1  UNL1        0.1564
      5 C          63.0656   86.9997   17.0268 C.ar    1  UNL1        0.1710
      6 F          62.4481   86.3170   18.2111 F       1  UNL1       -0.2012
      7 C          63.1085   88.4977   16.9628 C.ar    1  UNL1        0.0301
      8 N          63.5975   84.6862   15.9707 N.pl3   1  UNL1       -0.3126
      9 H          64.3511   84.1885   16.3625 H       1  UNL1        0.1486
     10 C          62.4063   83.9465   15.4378 C.3     1  UNL1        0.1170
     11 C          62.5539   83.0450   14.2481 C.ar    1  UNL1        0.0166
     12 C          62.2546   81.5807   14.3749 C.ar    1  UNL1        0.0004
     13 C          62.4022   80.6792   13.1852 C.ar    1  UNL1        0.0228
     14 C          62.8492   81.2420   11.8686 C.ar    1  UNL1        0.1526
     15 N          63.1486   82.7064   11.7418 N.ar    1  UNL1       -0.2401
     16 C          63.0009   83.6078   12.9315 C.ar    1  UNL1        0.0961
     17 C          62.9968   80.3404   10.6789 C.3     1  UNL1        0.4348
     18 F          63.1444   79.4389    9.4891 F       1  UNL1       -0.1644
     19 F          62.5241   79.1782   11.5009 F       1  UNL1       -0.1644
     20 F          63.4696   81.5027    9.8568 F       1  UNL1       -0.1644
     21 C          63.7690   90.6783   15.7143 C.3     1  UNL1        0.0581
     22 C          64.1060   91.6742   10.9592 C.2     1  UNL1        0.1673
     23 C          65.3775   92.3852   10.6020 C.2     1  UNL1        0.2683
     24 N          66.3795   92.7118   11.6695 N.2     1  UNL1       -0.0278
     25 C          66.1100   92.3274   13.0941 C.2     1  UNL1        0.3719
     26 N          66.9050   92.5153   14.3520 N.2     1  UNL1       -0.0311
     27 C          66.1249   91.9205   15.4867 C.2     1  UNL1        0.2319
     28 C          64.8476   91.3649   14.9300 C.2     1  UNL1        0.0329
     29 C          64.8385   91.6164   13.4512 C.2     1  UNL1        0.0739
     30 C          63.8365   91.2898   12.3838 C.3     1  UNL1        0.1019
     31 C          62.1316   90.2237   10.0946 C.3     1  UNL1        0.2522
     32 O          63.1040   91.3476    9.8918 O.2     1  UNL1       -0.4715
@<TRIPOS>BOND
     1    31    32    1
     2    32    22    1
     3    22    23    2
     4    23    24    1
     5    24    25    2
     6    25    26    1
     7    26    27    2
     8    27    28    1
     9    28    21    1
    10    21     1    1
    11     1     2   ar
    12     2     3   ar
    13     3     4   ar
    14     4     8    1
    15     8    10    1
    16    10    11    1
    17    11    12   ar
    18    12    13   ar
    19    13    14   ar
    20    14    17    1
    21    17    18    1
    22    17    19    1
    23    17    20    1
    24    14    15   ar
    25    15    16   ar
    26     4     5   ar
    27     5     6    1
    28     5     7   ar
    29    28    29    2
    30    29    30    1
    31    30    22    1
    32    29    25    1
    33     7     1   ar
    34    16    11   ar
    35     8     9    1
@<TRIPOS>MOLECULE
*****
 32 35 0 0 0
SMALL
GASTEIGER

@<TRIPOS>ATOM
      1 C          62.3286   88.4167   11.3992 C.ar    1  UNL1        0.0038
      2 C          62.3194   89.8168   10.8611 C.ar    1  UNL1        0.0965
      3 N          63.1190   90.8875   11.5425 N.ar    1  UNL1       -0.2274
      4 C          63.9279   90.5581   12.7620 C.ar    1  UNL1        0.1564
      5 C          63.9371   89.1579   13.3002 C.ar    1  UNL1        0.1710
      6 F          64.7459   88.8285   14.5197 F       1  UNL1       -0.2012
      7 C          63.1375   88.0872   12.6188 C.ar    1  UNL1        0.0301
      8 N          64.7275   91.6288   13.4434 N.pl3   1  UNL1       -0.3126
      9 H          64.3124   92.1830   14.1433 H       1  UNL1        0.1486
     10 C          66.1594   91.8551   13.0584 C.3     1  UNL1        0.1170
     11 C          66.4984   92.8304   11.9703 C.ar    1  UNL1        0.0166
     12 C          67.1602   92.3509   10.7126 C.ar    1  UNL1        0.0004
     13 C          67.4992   93.3262    9.6246 C.ar    1  UNL1        0.0228
     14 C          67.1762   94.7812    9.7942 C.ar    1  UNL1        0.1526
     15 N          66.5143   95.2607   11.0521 N.ar    1  UNL1       -0.2401
     16 C          66.1754   94.2854   12.1400 C.ar    1  UNL1        0.0961
     17 C          67.5152   95.7565    8.7062 C.3     1  UNL1        0.4348
     18 F          67.8541   96.7319    7.6182 F       1  UNL1       -0.1644
     19 F          67.4126   94.6583    7.6897 F       1  UNL1       -0.1644
     20 F          67.6177   96.8548    9.7228 F       1  UNL1       -0.1644
     21 C          61.5290   87.3460   10.7179 C.3     1  UNL1        0.0581
     22 C          63.2866   83.2527   12.6856 C.2     1  UNL1        0.1673
     23 C          63.9135   82.3420   11.6720 C.2     1  UNL1        0.2683
     24 N          63.9470   82.7392   10.2259 N.2     1  UNL1       -0.0278
     25 C          63.3535   84.0472    9.7935 C.2     1  UNL1        0.3719
     26 N          63.2396   84.7020    8.4488 N.2     1  UNL1       -0.0311
     27 C          62.5424   86.0175    8.6314 C.2     1  UNL1        0.2319
     28 C          62.2252   86.1757   10.0889 C.2     1  UNL1        0.0329
     29 C          62.7265   84.9579   10.8071 C.2     1  UNL1        0.0739
     30 C          62.6931   84.5606   12.2532 C.3     1  UNL1        0.1019
     31 C          64.1793   83.5127   15.1116 C.3     1  UNL1        0.2522
     32 O          63.2532   82.8555   14.1317 O.2     1  UNL1       -0.4715
@<TRIPOS>BOND
     1    31    32    1
     2    32    22    1
     3    22    23    2
     4    23    24    1
     5    24    25    2
     6    25    26    1
     7    26    27    2
     8    27    28    1
     9    28    21    1
    10    21     1    1
    11     1     2   ar
    12     2     3   ar
    13     3     4   ar
    14     4     8    1
    15     8    10    1
    16    10    11    1
    17    11    12   ar
    18    12    13   ar
    19    13    14   ar
    20    14    17    1
    21    17    18    1
    22    17    19    1
    23    17    20    1
    24    14    15   ar
    25    15    16   ar
    26     4     5   ar
    27     5     6    1
    28     5     7   ar
    29    28    29    2
    30    29    30    1
    31    30    22    1
    32    29    25    1
    33     7     1   ar
    34    16    11   ar
    35     8     9    1
@<TRIPOS>MOLECULE
*****
 32 35 0 0 0
SMALL
GASTEIGER

@<TRIPOS>ATOM
      1 C          62.8643   84.7026   10.4777 C.ar    1  UNL1        0.0038
      2 C          62.0305   85.2252   11.6098 C.ar    1  UNL1        0.0965
      3 N          62.1786   84.6398   12.9829 N.ar    1  UNL1       -0.2274
      4 C          63.1604   83.5317   13.2239 C.ar    1  UNL1        0.1564
      5 C          63.9943   83.0091   12.0918 C.ar    1  UNL1        0.1710
      6 F          64.9762   81.9011   12.3329 F       1  UNL1       -0.2012
      7 C          63.8463   83.5945   10.7187 C.ar    1  UNL1        0.0301
      8 N          63.3085   82.9463   14.5970 N.pl3   1  UNL1       -0.3126
      9 H          62.9503   82.0501   14.7913 H       1  UNL1        0.1486
     10 C          64.0022   83.7264   15.6741 C.3     1  UNL1        0.1170
     11 C          63.9252   85.2244   15.6833 C.ar    1  UNL1        0.0166
     12 C          64.6442   86.0189   14.6336 C.ar    1  UNL1        0.0004
     13 C          64.5671   87.5168   14.6428 C.ar    1  UNL1        0.0228
     14 C          63.7710   88.2204   15.7017 C.ar    1  UNL1        0.1526
     15 N          63.0520   87.4259   16.7514 N.ar    1  UNL1       -0.2401
     16 C          63.1291   85.9280   16.7421 C.ar    1  UNL1        0.0961
     17 C          63.6940   89.7184   15.7108 C.3     1  UNL1        0.4348
     18 F          63.6169   91.2164   15.7200 F       1  UNL1       -0.1644
     19 F          62.6524   89.6582   16.7885 F       1  UNL1       -0.1644
     20 F          64.7356   89.7785   14.6331 F       1  UNL1       -0.1644
     21 C          62.7163   85.2880    9.1046 C.3     1  UNL1        0.0581
     22 C          62.0191   89.6859   11.0767 C.2     1  UNL1        0.1673
     23 C          60.8272   90.3968   10.5075 C.2     1  UNL1        0.2683
     24 N          59.9984   89.7387    9.4446 N.2     1  UNL1       -0.0278
     25 C          60.3614   88.3696    8.9508 C.2     1  UNL1        0.3719
     26 N          59.7373   87.4762    7.9202 N.2     1  UNL1       -0.0311
     27 C          60.5435   86.2130    7.8523 C.2     1  UNL1        0.2319
     28 C          61.6659   86.3258    8.8411 C.2     1  UNL1        0.0329
     29 C          61.5533   87.6587    9.5200 C.2     1  UNL1        0.0739
     30 C          62.3821   88.3168   10.5829 C.3     1  UNL1        0.1019
     31 C          63.9327   91.3065   11.7563 C.3     1  UNL1        0.2522
     32 O          62.8480   90.3440   12.1396 O.2     1  UNL1       -0.4715
@<TRIPOS>BOND
     1    31    32    1
     2    32    22    1
     3    22    23    2
     4    23    24    1
     5    24    25    2
     6    25    26    1
     7    26    27    2
     8    27    28    1
     9    28    21    1
    10    21     1    1
    11     1     2   ar
    12     2     3   ar
    13     3     4   ar
    14     4     8    1
    15     8    10    1
    16    10    11    1
    17    11    12   ar
    18    12    13   ar
    19    13    14   ar
    20    14    17    1
    21    17    18    1
    22    17    19    1
    23    17    20    1
    24    14    15   ar
    25    15    16   ar
    26     4     5   ar
    27     5     6    1
    28     5     7   ar
    29    28    29    2
    30    29    30    1
    31    30    22    1
    32    29    25    1
    33     7     1   ar
    34    16    11   ar
    35     8     9    1
@<TRIPOS>MOLECULE
*****
 32 35 0 0 0
SMALL
GASTEIGER

@<TRIPOS>ATOM
      1 C          63.6765   88.6644   15.6271 C.ar    1  UNL1        0.0038
      2 C          64.2169   87.7709   14.5503 C.ar    1  UNL1        0.0965
      3 N          64.1516   86.2808   14.7091 N.ar    1  UNL1       -0.2274
      4 C          63.5457   85.6841   15.9447 C.ar    1  UNL1        0.1564
      5 C          63.0052   86.5776   17.0216 C.ar    1  UNL1        0.1710
      6 F          62.3993   85.9809   18.2573 F       1  UNL1       -0.2012
      7 C          63.0706   88.0677   16.8628 C.ar    1  UNL1        0.0301
      8 N          63.4803   84.1939   16.1036 N.pl3   1  UNL1       -0.3126
      9 H          64.2002   83.7172   16.5765 H       1  UNL1        0.1486
     10 C          62.3180   83.4301   15.5417 C.3     1  UNL1        0.1170
     11 C          62.4905   82.6101   14.2976 C.ar    1  UNL1        0.0166
     12 C          62.0824   81.1668   14.2880 C.ar    1  UNL1        0.0004
     13 C          62.2548   80.3468   13.0439 C.ar    1  UNL1        0.0228
     14 C          62.8353   80.9701   11.8092 C.ar    1  UNL1        0.1526
     15 N          63.2434   82.4136   11.8188 N.ar    1  UNL1       -0.2401
     16 C          63.0710   83.2335   13.0629 C.ar    1  UNL1        0.0961
     17 C          63.0078   80.1501   10.5651 C.3     1  UNL1        0.4348
     18 F          63.1802   79.3301    9.3210 F       1  UNL1       -0.1644
     19 F          62.6115   78.9176   11.3226 F       1  UNL1       -0.1644
     20 F          63.4040   81.3828    9.8077 F       1  UNL1       -0.1644
     21 C          63.7419   90.1545   15.4683 C.3     1  UNL1        0.0581
     22 C          67.5452   92.5489   13.5926 C.2     1  UNL1        0.1673
     23 C          67.3196   92.9798   12.1737 C.2     1  UNL1        0.2683
     24 N          66.0237   92.6595   11.4896 N.2     1  UNL1       -0.0278
     25 C          64.9534   91.9082   12.2244 C.2     1  UNL1        0.3719
     26 N          63.5844   91.4529   11.8139 N.2     1  UNL1       -0.0311
     27 C          62.9639   90.7405   12.9790 C.2     1  UNL1        0.2319
     28 C          63.9494   90.7556   14.1097 C.2     1  UNL1        0.0329
     29 C          65.1790   91.4772   13.6433 C.2     1  UNL1        0.0739
     30 C          66.4749   91.7976   14.3274 C.3     1  UNL1        0.1019
     31 C          68.8665   93.1213   15.7551 C.3     1  UNL1        0.2522
     32 O          68.8411   92.8692   14.2767 O.2     1  UNL1       -0.4715
@<TRIPOS>BOND
     1    31    32    1
     2    32    22    1
     3    22    23    2
     4    23    24    1
     5    24    25    2
     6    25    26    1
     7    26    27    2
     8    27    28    1
     9    28    21    1
    10    21     1    1
    11     1     2   ar
    12     2     3   ar
    13     3     4   ar
    14     4     8    1
    15     8    10    1
    16    10    11    1
    17    11    12   ar
    18    12    13   ar
    19    13    14   ar
    20    14    17    1
    21    17    18    1
    22    17    19    1
    23    17    20    1
    24    14    15   ar
    25    15    16   ar
    26     4     5   ar
    27     5     6    1
    28     5     7   ar
    29    28    29    2
    30    29    30    1
    31    30    22    1
    32    29    25    1
    33     7     1   ar
    34    16    11   ar
    35     8     9    1
@<TRIPOS>MOLECULE
*****
 32 35 0 0 0
SMALL
GASTEIGER

@<TRIPOS>ATOM
      1 C          63.7852   91.4657   11.0728 C.ar    1  UNL1        0.0038
      2 C          63.6895   90.7323   12.3778 C.ar    1  UNL1        0.0965
      3 N          62.7298   89.5893   12.5272 N.ar    1  UNL1       -0.2274
      4 C          61.8656   89.1796   11.3716 C.ar    1  UNL1        0.1564
      5 C          61.9614   89.9130   10.0665 C.ar    1  UNL1        0.1710
      6 F          61.0972   89.5033    8.9109 F       1  UNL1       -0.2012
      7 C          62.9211   91.0560    9.9171 C.ar    1  UNL1        0.0301
      8 N          60.9059   88.0365   11.5210 N.pl3   1  UNL1       -0.3126
      9 H          59.9673   88.2102   11.7624 H       1  UNL1        0.1486
     10 C          61.3760   86.6290   11.3025 C.3     1  UNL1        0.1170
     11 C          61.4987   86.0869    9.9093 C.ar    1  UNL1        0.0166
     12 C          62.7503   85.3753    9.4888 C.ar    1  UNL1        0.0004
     13 C          62.8729   84.8333    8.0956 C.ar    1  UNL1        0.0228
     14 C          61.7438   85.0028    7.1228 C.ar    1  UNL1        0.1526
     15 N          60.4921   85.7144    7.5433 N.ar    1  UNL1       -0.2401
     16 C          60.3695   86.2565    8.9365 C.ar    1  UNL1        0.0961
     17 C          61.8664   84.4607    5.7295 C.3     1  UNL1        0.4348
     18 F          61.9890   83.9186    4.3363 F       1  UNL1       -0.1644
     19 F          60.4129   84.0907    5.7456 F       1  UNL1       -0.1644
     20 F          63.3200   84.8307    5.7136 F       1  UNL1       -0.1644
     21 C          64.7450   92.6087   10.9234 C.3     1  UNL1        0.0581
     22 C          66.9480   92.5963   15.2666 C.2     1  UNL1        0.1673
     23 C          68.4289   92.3791   15.1675 C.2     1  UNL1        0.2683
     24 N          69.0718   92.1948   13.8249 N.2     1  UNL1       -0.0278
     25 C          68.2338   92.2278   12.5812 C.2     1  UNL1        0.3719
     26 N          68.5843   92.0775   11.1305 N.2     1  UNL1       -0.0311
     27 C          67.3200   92.2019   10.3329 C.2     1  UNL1        0.2319
     28 C          66.1882   92.4291   11.2907 C.2     1  UNL1        0.0329
     29 C          66.7530   92.4450   12.6802 C.2     1  UNL1        0.0739
     30 C          66.1101   92.6293   14.0229 C.3     1  UNL1        0.1019
     31 C          64.8871   92.3433   16.8282 C.3     1  UNL1        0.2522
     32 O          66.3051   92.7806   16.6092 O.2     1  UNL1       -0.4715
@<TRIPOS>BOND
     1    31    32    1
     2    32    22    1
     3    22    23    2
     4    23    24    1
     5    24    25    2
     6    25    26    1
     7    26    27    2
     8    27    28    1
     9    28    21    1
    10    21     1    1
    11     1     2   ar
    12     2     3   ar
    13     3     4   ar
    14     4     8    1
    15     8    10    1
    16    10    11    1
    17    11    12   ar
    18    12    13   ar
    19    13    14   ar
    20    14    17    1
    21    17    18    1
    22    17    19    1
    23    17    20    1
    24    14    15   ar
    25    15    16   ar
    26     4     5   ar
    27     5     6    1
    28     5     7   ar
    29    28    29    2
    30    29    30    1
    31    30    22    1
    32    29    25    1
    33     7     1   ar
    34    16    11   ar
    35     8     9    1
@<TRIPOS>MOLECULE
*****
 32 35 0 0 0
SMALL
GASTEIGER

@<TRIPOS>ATOM
      1 C          63.7550   88.7212   15.7011 C.ar    1  UNL1        0.0038
      2 C          64.5567   87.9879   14.6669 C.ar    1  UNL1        0.0965
      3 N          64.6726   86.4937   14.7284 N.ar    1  UNL1       -0.2274
      4 C          63.9868   85.7327   15.8241 C.ar    1  UNL1        0.1564
      5 C          63.1851   86.4660   16.8583 C.ar    1  UNL1        0.1710
      6 F          62.4993   85.7050   17.9540 F       1  UNL1       -0.2012
      7 C          63.0692   87.9603   16.7968 C.ar    1  UNL1        0.0301
      8 N          64.1028   84.2384   15.8857 N.pl3   1  UNL1       -0.3126
      9 H          64.6766   83.8168   16.5655 H       1  UNL1        0.1486
     10 C          63.3445   83.3866   14.9113 C.3     1  UNL1        0.1170
     11 C          63.1099   83.8748   13.5125 C.ar    1  UNL1        0.0166
     12 C          63.8276   83.2313   12.3633 C.ar    1  UNL1        0.0004
     13 C          63.5931   83.7195   10.9645 C.ar    1  UNL1        0.0228
     14 C          62.6408   84.8512   10.7149 C.ar    1  UNL1        0.1526
     15 N          61.9231   85.4948   11.8642 N.ar    1  UNL1       -0.2401
     16 C          62.1577   85.0066   13.2629 C.ar    1  UNL1        0.0961
     17 C          62.4062   85.3394    9.3161 C.3     1  UNL1        0.4348
     18 F          62.1717   85.8276    7.9173 F       1  UNL1       -0.1644
     19 F          61.0515   85.8420    9.7186 F       1  UNL1       -0.1644
     20 F          63.7610   84.8368    8.9135 F       1  UNL1       -0.1644
     21 C          63.6391   90.2155   15.6395 C.3     1  UNL1        0.0581
     22 C          62.5124   90.6228   10.9193 C.2     1  UNL1        0.1673
     23 C          63.4706   91.4965   10.1653 C.2     1  UNL1        0.2683
     24 N          64.6253   92.1341   10.8796 N.2     1  UNL1       -0.0278
     25 C          64.8218   91.8980   12.3478 C.2     1  UNL1        0.3719
     26 N          65.8598   92.3885   13.3132 N.2     1  UNL1       -0.0311
     27 C          65.5431   91.8179   14.6638 C.2     1  UNL1        0.2319
     28 C          64.3094   90.9748   14.5331 C.2     1  UNL1        0.0329
     29 C          63.8636   91.0243   13.1017 C.2     1  UNL1        0.0739
     30 C          62.7089   90.3867   12.3874 C.3     1  UNL1        0.1019
     31 C          60.5188   88.9569   10.9041 C.3     1  UNL1        0.2522
     32 O          61.3578   89.9852   10.2050 O.2     1  UNL1       -0.4715
@<TRIPOS>BOND
     1    31    32    1
     2    32    22    1
     3    22    23    2
     4    23    24    1
     5    24    25    2
     6    25    26    1
     7    26    27    2
     8    27    28    1
     9    28    21    1
    10    21     1    1
    11     1     2   ar
    12     2     3   ar
    13     3     4   ar
    14     4     8    1
    15     8    10    1
    16    10    11    1
    17    11    12   ar
    18    12    13   ar
    19    13    14   ar
    20    14    17    1
    21    17    18    1
    22    17    19    1
    23    17    20    1
    24    14    15   ar
    25    15    16   ar
    26     4     5   ar
    27     5     6    1
    28     5     7   ar
    29    28    29    2
    30    29    30    1
    31    30    22    1
    32    29    25    1
    33     7     1   ar
    34    16    11   ar
    35     8     9    1
@<TRIPOS>MOLECULE
*****
 32 35 0 0 0
SMALL
GASTEIGER

@<TRIPOS>ATOM
      1 C          63.3784   84.6096   14.7133 C.ar    1  UNL1        0.0038
      2 C          64.1521   85.7628   14.1464 C.ar    1  UNL1        0.0965
      3 N          64.2112   87.0643   14.8900 N.ar    1  UNL1       -0.2274
      4 C          63.4965   87.2124   16.2004 C.ar    1  UNL1        0.1564
      5 C          62.7227   86.0591   16.7673 C.ar    1  UNL1        0.1710
      6 F          62.0081   86.2073   18.0777 F       1  UNL1       -0.2012
      7 C          62.6637   84.7577   16.0238 C.ar    1  UNL1        0.0301
      8 N          63.5555   88.5138   16.9439 N.pl3   1  UNL1       -0.3126
      9 H          63.9978   88.5593   17.8223 H       1  UNL1        0.1486
     10 C          62.9407   89.7460   16.3491 C.3     1  UNL1        0.1170
     11 C          63.5836   90.4093   15.1673 C.ar    1  UNL1        0.0166
     12 C          63.0793   90.1278   13.7830 C.ar    1  UNL1        0.0004
     13 C          63.7223   90.7912   12.6012 C.ar    1  UNL1        0.0228
     14 C          64.8696   91.7360   12.8037 C.ar    1  UNL1        0.1526
     15 N          65.3739   92.0175   14.1882 N.ar    1  UNL1       -0.2401
     16 C          64.7309   91.3541   15.3699 C.ar    1  UNL1        0.0961
     17 C          65.5125   92.3993   11.6220 C.3     1  UNL1        0.4348
     18 F          66.1554   93.0626   10.4402 F       1  UNL1       -0.1644
     19 F          66.5906   92.9415   12.5128 F       1  UNL1       -0.1644
     20 F          64.4343   91.8571   10.7311 F       1  UNL1       -0.1644
     21 C          63.3194   83.3082   13.9698 C.3     1  UNL1        0.0581
     22 C          61.6759   86.0231   10.2759 C.2     1  UNL1        0.1673
     23 C          62.2700   85.6308    8.9557 C.2     1  UNL1        0.2683
     24 N          63.2595   84.5058    8.8832 N.2     1  UNL1       -0.0278
     25 C          63.6548   83.7731   10.1309 C.2     1  UNL1        0.3719
     26 N          64.5988   82.6318   10.3682 N.2     1  UNL1       -0.0311
     27 C          64.5880   82.3187   11.8352 C.2     1  UNL1        0.2319
     28 C          63.6374   83.2665   12.5045 C.2     1  UNL1        0.0329
     29 C          63.0607   84.1654   11.4511 C.2     1  UNL1        0.0739
     30 C          62.0712   85.2904   11.5236 C.3     1  UNL1        0.1019
     31 C          59.8258   87.4677    9.1622 C.3     1  UNL1        0.2522
     32 O          60.6864   87.1482   10.3485 O.2     1  UNL1       -0.4715
@<TRIPOS>BOND
     1    31    32    1
     2    32    22    1
     3    22    23    2
     4    23    24    1
     5    24    25    2
     6    25    26    1
     7    26    27    2
     8    27    28    1
     9    28    21    1
    10    21     1    1
    11     1     2   ar
    12     2     3   ar
    13     3     4   ar
    14     4     8    1
    15     8    10    1
    16    10    11    1
    17    11    12   ar
    18    12    13   ar
    19    13    14   ar
    20    14    17    1
    21    17    18    1
    22    17    19    1
    23    17    20    1
    24    14    15   ar
    25    15    16   ar
    26     4     5   ar
    27     5     6    1
    28     5     7   ar
    29    28    29    2
    30    29    30    1
    31    30    22    1
    32    29    25    1
    33     7     1   ar
    34    16    11   ar
    35     8     9    1
@<TRIPOS>MOLECULE
*****
 32 35 0 0 0
SMALL
GASTEIGER

@<TRIPOS>ATOM
      1 C          63.7022   91.2391   11.1452 C.ar    1  UNL1        0.0038
      2 C          63.7603   90.3399   12.3443 C.ar    1  UNL1        0.0965
      3 N          62.8974   89.1145   12.4054 N.ar    1  UNL1       -0.2274
      4 C          61.9762   88.7883   11.2674 C.ar    1  UNL1        0.1564
      5 C          61.9181   89.6876   10.0682 C.ar    1  UNL1        0.1710
      6 F          60.9970   89.3614    8.9302 F       1  UNL1       -0.2012
      7 C          62.7811   90.9130   10.0070 C.ar    1  UNL1        0.0301
      8 N          61.1133   87.5629   11.3286 N.pl3   1  UNL1       -0.3126
      9 H          60.2885   87.5680   11.8662 H       1  UNL1        0.1486
     10 C          61.5070   86.3298   10.5707 C.3     1  UNL1        0.1170
     11 C          62.0695   85.1474   11.3023 C.ar    1  UNL1        0.0166
     12 C          62.5845   83.9660   10.5349 C.ar    1  UNL1        0.0004
     13 C          63.1470   82.7836   11.2666 C.ar    1  UNL1        0.0228
     14 C          63.1947   82.7826   12.7658 C.ar    1  UNL1        0.1526
     15 N          62.6797   83.9641   13.5333 N.ar    1  UNL1       -0.2401
     16 C          62.1172   85.1464   12.8016 C.ar    1  UNL1        0.0961
     17 C          63.7573   81.6001   13.4975 C.3     1  UNL1        0.4348
     18 F          64.3198   80.4177   14.2292 F       1  UNL1       -0.1644
     19 F          64.1555   82.4934   14.6348 F       1  UNL1       -0.1644
     20 F          63.3590   80.7069   12.3601 F       1  UNL1       -0.1644
     21 C          64.5651   92.4645   11.0840 C.3     1  UNL1        0.0581
     22 C          66.8342   92.5693   15.3917 C.2     1  UNL1        0.1673
     23 C          68.3239   92.4452   15.2682 C.2     1  UNL1        0.2683
     24 N          68.9554   92.3075   13.9146 N.2     1  UNL1       -0.0278
     25 C          68.0971   92.2940   12.6845 C.2     1  UNL1        0.3719
     26 N          68.4329   92.1726   11.2276 N.2     1  UNL1       -0.0311
     27 C          67.1507   92.2217   10.4507 C.2     1  UNL1        0.2319
     28 C          66.0224   92.3734   11.4274 C.2     1  UNL1        0.0329
     29 C          66.6074   92.4181   12.8080 C.2     1  UNL1        0.0739
     30 C          65.9760   92.5558   14.1616 C.3     1  UNL1        0.1019
     31 C          64.7720   92.3057   16.9498 C.3     1  UNL1        0.2522
     32 O          66.2028   92.7069   16.7454 O.2     1  UNL1       -0.4715
@<TRIPOS>BOND
     1    31    32    1
     2    32    22    1
     3    22    23    2
     4    23    24    1
     5    24    25    2
     6    25    26    1
     7    26    27    2
     8    27    28    1
     9    28    21    1
    10    21     1    1
    11     1     2   ar
    12     2     3   ar
    13     3     4   ar
    14     4     8    1
    15     8    10    1
    16    10    11    1
    17    11    12   ar
    18    12    13   ar
    19    13    14   ar
    20    14    17    1
    21    17    18    1
    22    17    19    1
    23    17    20    1
    24    14    15   ar
    25    15    16   ar
    26     4     5   ar
    27     5     6    1
    28     5     7   ar
    29    28    29    2
    30    29    30    1
    31    30    22    1
    32    29    25    1
    33     7     1   ar
    34    16    11   ar
    35     8     9    1
@<TRIPOS>MOLECULE
*****
 32 35 0 0 0
SMALL
GASTEIGER

@<TRIPOS>ATOM
      1 C          63.7604   88.4109   15.5928 C.ar    1  UNL1        0.0038
      2 C          64.6189   87.6488   14.6274 C.ar    1  UNL1        0.0965
      3 N          64.7515   86.1602   14.7550 N.ar    1  UNL1       -0.2274
      4 C          64.0257   85.4335   15.8483 C.ar    1  UNL1        0.1564
      5 C          63.1672   86.1957   16.8138 C.ar    1  UNL1        0.1710
      6 F          62.4413   85.4691   17.9071 F       1  UNL1       -0.2012
      7 C          63.0345   87.6843   16.6861 C.ar    1  UNL1        0.0301
      8 N          64.1583   83.9449   15.9760 N.pl3   1  UNL1       -0.3126
      9 H          64.5780   83.5550   16.7766 H       1  UNL1        0.1486
     10 C          63.6516   83.0504   14.8837 C.3     1  UNL1        0.1170
     11 C          63.3567   83.6170   13.5265 C.ar    1  UNL1        0.0166
     12 C          64.0946   83.1069   12.3244 C.ar    1  UNL1        0.0004
     13 C          63.7998   83.6735   10.9671 C.ar    1  UNL1        0.0228
     14 C          62.7670   84.7502   10.8121 C.ar    1  UNL1        0.1526
     15 N          62.0290   85.2603   12.0144 N.ar    1  UNL1       -0.2401
     16 C          62.3239   84.6937   13.3715 C.ar    1  UNL1        0.0961
     17 C          62.4721   85.3168    9.4549 C.3     1  UNL1        0.4348
     18 F          62.1773   85.8834    8.0977 F       1  UNL1       -0.1644
     19 F          61.1968   85.9077    9.9786 F       1  UNL1       -0.1644
     20 F          63.7476   84.7259    8.9312 F       1  UNL1       -0.1644
     21 C          63.6278   89.8996   15.4652 C.3     1  UNL1        0.0581
     22 C          67.2761   92.5338   13.6032 C.2     1  UNL1        0.1673
     23 C          67.0028   92.9993   12.2038 C.2     1  UNL1        0.2683
     24 N          65.7106   92.6395   11.5325 N.2     1  UNL1       -0.0278
     25 C          64.6916   91.8141   12.2607 C.2     1  UNL1        0.3719
     26 N          63.3381   91.3071   11.8596 N.2     1  UNL1       -0.0311
     27 C          62.7748   90.5282   13.0111 C.2     1  UNL1        0.2319
     28 C          63.7802   90.5538   14.1240 C.2     1  UNL1        0.0329
     29 C          64.9649   91.3485   13.6602 C.2     1  UNL1        0.0739
     30 C          66.2571   91.7084   14.3314 C.3     1  UNL1        0.1019
     31 C          68.6775   92.8393   15.7695 C.3     1  UNL1        0.2522
     32 O          68.5684   92.8936   14.2745 O.2     1  UNL1       -0.4715
@<TRIPOS>BOND
     1    31    32    1
     2    32    22    1
     3    22    23    2
     4    23    24    1
     5    24    25    2
     6    25    26    1
     7    26    27    2
     8    27    28    1
     9    28    21    1
    10    21     1    1
    11     1     2   ar
    12     2     3   ar
    13     3     4   ar
    14     4     8    1
    15     8    10    1
    16    10    11    1
    17    11    12   ar
    18    12    13   ar
    19    13    14   ar
    20    14    17    1
    21    17    18    1
    22    17    19    1
    23    17    20    1
    24    14    15   ar
    25    15    16   ar
    26     4     5   ar
    27     5     6    1
    28     5     7   ar
    29    28    29    2
    30    29    30    1
    31    30    22    1
    32    29    25    1
    33     7     1   ar
    34    16    11   ar
    35     8     9    1
