@<TRIPOS>MOLECULE
*****
 36 39 0 0 0
SMALL
GASTEIGER

@<TRIPOS>ATOM
      1 C          61.6262   87.9428   11.0197 C.ar    1  UNL1        0.1374
      2 C          62.8221   88.6529   11.5813 C.ar    1  UNL1        0.0461
      3 C          62.6860   90.0516   12.1058 C.ar    1  UNL1        0.1235
      4 N          61.3540   90.7402   12.0687 N.ar    1  UNL1       -0.2275
      5 C          60.1580   90.0301   11.5071 C.ar    1  UNL1        0.1398
      6 C          58.8259   90.7187   11.4700 C.3     1  UNL1        0.0737
      7 N          60.2941   88.6314   10.9825 N.ar    1  UNL1       -0.2261
      8 C          63.8821   90.7616   12.6674 C.ar    1  UNL1        0.2233
      9 N          64.7001   90.3163   13.8432 N.ar    1  UNL1       -0.1062
     10 N          65.7936   91.3211   14.0544 N.ar    1  UNL1       -0.0449
     11 N          65.6514   92.3875   13.0091 N.ar    1  UNL1       -0.1483
     12 N          64.4700   92.0417   12.1519 N.ar    1  UNL1       -0.1280
     13 C          66.5354   93.5887   12.8490 C.3     1  UNL1        0.1832
     14 C          66.4934   94.3871   11.5799 C.3     1  UNL1        0.1710
     15 C          66.8731   93.7463   10.2779 C.3     1  UNL1        0.1738
     16 O          66.8311   94.5446    9.0087 O.3     1  UNL1       -0.3485
     17 C          66.4094   95.9838    9.0415 C.3     1  UNL1        0.1739
     18 C          66.0297   96.6246   10.3435 C.3     1  UNL1        0.1742
     19 O          66.0717   95.8261   11.6127 O.3     1  UNL1       -0.3489
     20 C          66.3674   96.7821    7.7722 C.3     1  UNL1        0.1692
     21 O          65.2438   96.5840    6.7984 O.3     1  UNL1       -0.3794
     22 H          65.2926   95.6897    6.4261 H       1  UNL1        0.2105
     23 N          62.9457   85.7088   10.8847 N.am    1  UNL1       -0.2957
     24 C          61.7623   86.5441   10.4951 C.2     1  UNL1        0.2639
     25 O          60.7149   85.9806    9.5810 O.2     1  UNL1       -0.2685
     26 H          63.6331   86.0786   11.4847 H       1  UNL1        0.1501
     27 C          63.0818   84.3101   10.3602 C.3     1  UNL1        0.1167
     28 C          62.7465   82.2154   13.7143 C.ar    1  UNL1        0.1657
     29 C          62.8196   83.3801   12.7719 C.ar    1  UNL1        0.0366
     30 C          63.0088   83.1453   11.3026 C.ar    1  UNL1        0.0006
     31 C          63.1248   81.7458   10.7755 C.ar    1  UNL1       -0.0001
     32 C          63.0517   80.5811   11.7178 C.ar    1  UNL1        0.0325
     33 C          62.8626   80.8159   13.1872 C.ar    1  UNL1        0.1738
     34 F          62.7895   79.6510   14.1296 F       1  UNL1       -0.2010
     35 C          62.6247   83.8434   15.7353 C.3     1  UNL1        0.2526
     36 O          62.5574   82.4502   15.1837 O.3     1  UNL1       -0.4692
@<TRIPOS>BOND
     1    35    36    1
     2    36    28    1
     3    28    29   ar
     4    29    30   ar
     5    30    27    1
     6    27    23    1
     7    23    24   am
     8    24    25    2
     9    24     1    1
    10     1     2   ar
    11     2     3   ar
    12     3     8    1
    13     8     9   ar
    14     9    10   ar
    15    10    11   ar
    16    11    13    1
    17    14    13    1
    18    14    15    1
    19    15    16    1
    20    16    17    1
    21    17    20    1
    22    20    21    1
    23    17    18    1
    24    18    19    1
    25    11    12   ar
    26     3     4   ar
    27     4     5   ar
    28     5     6    1
    29     5     7   ar
    30    30    31   ar
    31    31    32   ar
    32    32    33   ar
    33    33    34    1
    34    33    28   ar
    35     7     1   ar
    36    12     8   ar
    37    19    14    1
    38    23    26    1
    39    21    22    1
@<TRIPOS>MOLECULE
*****
 36 39 0 0 0
SMALL
GASTEIGER

@<TRIPOS>ATOM
      1 C          61.7909   87.8016   11.2445 C.ar    1  UNL1        0.1374
      2 C          62.8906   88.6461   11.8168 C.ar    1  UNL1        0.0461
      3 C          62.5807   90.0031   12.3757 C.ar    1  UNL1        0.1235
      4 N          61.1711   90.5157   12.3624 N.ar    1  UNL1       -0.2275
      5 C          60.0713   89.6713   11.7900 C.ar    1  UNL1        0.1398
      6 C          58.6617   90.1839   11.7766 C.3     1  UNL1        0.0737
      7 N          60.3812   88.3142   11.2311 N.ar    1  UNL1       -0.2261
      8 C          63.6804   90.8475   12.9481 C.ar    1  UNL1        0.2233
      9 N          63.9664   91.0531   14.4062 N.ar    1  UNL1       -0.1062
     10 N          65.1499   91.9672   14.5221 N.ar    1  UNL1       -0.0449
     11 N          65.5955   92.3267   13.1356 N.ar    1  UNL1       -0.1483
     12 N          64.6873   91.6347   12.1628 N.ar    1  UNL1       -0.1280
     13 C          66.7472   93.2211   12.7837 C.3     1  UNL1        0.1832
     14 C          66.6941   94.0579   11.5400 C.3     1  UNL1        0.1710
     15 C          66.0063   95.3908   11.5617 C.3     1  UNL1        0.1738
     16 O          65.9532   96.2276   10.3180 O.3     1  UNL1       -0.3485
     17 C          66.5879   95.7316    9.0526 C.3     1  UNL1        0.1739
     18 C          67.2757   94.3988    9.0309 C.3     1  UNL1        0.1742
     19 O          67.3287   93.5620   10.2747 O.3     1  UNL1       -0.3489
     20 C          66.5348   96.5685    7.8088 C.3     1  UNL1        0.1692
     21 O          65.3711   96.4444    6.8704 O.3     1  UNL1       -0.3794
     22 H          65.3705   95.5603    6.4713 H       1  UNL1        0.2105
     23 N          63.0928   85.5572   11.3773 N.am    1  UNL1       -0.2957
     24 C          62.1008   86.4446   10.6856 C.2     1  UNL1        0.2639
     25 O          61.4187   85.9750    9.4348 O.2     1  UNL1       -0.2685
     26 H          63.5404   85.8655   12.1981 H       1  UNL1        0.1501
     27 C          63.4027   84.2002   10.8183 C.3     1  UNL1        0.1167
     28 C          62.7691   80.3961   11.7553 C.ar    1  UNL1        0.1657
     29 C          63.0795   81.6259   10.9544 C.ar    1  UNL1        0.0366
     30 C          63.0923   82.9704   11.6193 C.ar    1  UNL1        0.0006
     31 C          62.7948   83.0852   13.0850 C.ar    1  UNL1       -0.0001
     32 C          62.4845   81.8555   13.8858 C.ar    1  UNL1        0.0325
     33 C          62.4717   80.5110   13.2210 C.ar    1  UNL1        0.1738
     34 F          62.1613   79.2812   14.0219 F       1  UNL1       -0.2010
     35 C          62.8249   78.9535    9.5952 C.3     1  UNL1        0.2526
     36 O          62.7563   79.0516   11.0904 O.3     1  UNL1       -0.4692
@<TRIPOS>BOND
     1    35    36    1
     2    36    28    1
     3    28    29   ar
     4    29    30   ar
     5    30    27    1
     6    27    23    1
     7    23    24   am
     8    24    25    2
     9    24     1    1
    10     1     2   ar
    11     2     3   ar
    12     3     8    1
    13     8     9   ar
    14     9    10   ar
    15    10    11   ar
    16    11    13    1
    17    14    13    1
    18    14    15    1
    19    15    16    1
    20    16    17    1
    21    17    20    1
    22    20    21    1
    23    17    18    1
    24    18    19    1
    25    11    12   ar
    26     3     4   ar
    27     4     5   ar
    28     5     6    1
    29     5     7   ar
    30    30    31   ar
    31    31    32   ar
    32    32    33   ar
    33    33    34    1
    34    33    28   ar
    35     7     1   ar
    36    12     8   ar
    37    19    14    1
    38    23    26    1
    39    21    22    1
@<TRIPOS>MOLECULE
*****
 36 39 0 0 0
SMALL
GASTEIGER

@<TRIPOS>ATOM
      1 C          62.8692   88.8325   12.2683 C.ar    1  UNL1        0.1374
      2 C          61.9864   88.9378   11.0601 C.ar    1  UNL1        0.0461
      3 C          61.5576   87.6972   10.3341 C.ar    1  UNL1        0.1235
      4 N          62.0115   86.3513   10.8163 N.ar    1  UNL1       -0.2275
      5 C          62.8943   86.2460   12.0245 C.ar    1  UNL1        0.1398
      6 C          63.3482   84.9001   12.5066 C.3     1  UNL1        0.0737
      7 N          63.3231   87.4865   12.7505 N.ar    1  UNL1       -0.2261
      8 C          60.6748   87.8026    9.1259 C.ar    1  UNL1        0.2233
      9 N          60.3560   86.6936    8.1675 N.ar    1  UNL1       -0.1062
     10 N          59.4401   87.2410    7.1133 N.ar    1  UNL1       -0.0449
     11 N          59.1928   88.6884    7.4201 N.ar    1  UNL1       -0.1483
     12 N          59.9560   89.0354    8.6640 N.ar    1  UNL1       -0.1280
     13 C          58.3334   89.6243    6.6231 C.3     1  UNL1        0.1832
     14 C          58.9590   90.5433    5.6161 C.3     1  UNL1        0.1710
     15 C          58.1059   91.5145    4.8552 C.3     1  UNL1        0.1738
     16 O          58.7316   92.4334    3.8482 O.3     1  UNL1       -0.3485
     17 C          60.2103   92.3812    3.6021 C.3     1  UNL1        0.1739
     18 C          61.0634   91.4100    4.3630 C.3     1  UNL1        0.1742
     19 O          60.4377   90.4910    5.3700 O.3     1  UNL1       -0.3489
     20 C          60.8360   93.3002    2.5950 C.3     1  UNL1        0.1692
     21 O          62.2873   93.1534    2.2455 O.3     1  UNL1       -0.3794
     22 H          62.8298   93.3683    3.0204 H       1  UNL1        0.2105
     23 N          63.6993   89.9966   14.4375 N.am    1  UNL1       -0.2957
     24 C          63.2980   90.0731   12.9943 C.2     1  UNL1        0.2639
     25 O          63.3255   91.3902   12.2769 O.2     1  UNL1       -0.2685
     26 H          63.6812   89.1321   14.9083 H       1  UNL1        0.1501
     27 C          64.1281   91.2371   15.1635 C.3     1  UNL1        0.1167
     28 C          67.7723   91.8997   13.7383 C.ar    1  UNL1        0.1657
     29 C          66.3512   91.4289   13.8327 C.ar    1  UNL1        0.0366
     30 C          65.5492   91.7079   15.0692 C.ar    1  UNL1        0.0006
     31 C          66.1683   92.4577   16.2113 C.ar    1  UNL1       -0.0001
     32 C          67.5894   92.9285   16.1170 C.ar    1  UNL1        0.0325
     33 C          68.3913   92.6495   14.8804 C.ar    1  UNL1        0.1738
     34 F          69.8125   93.1203   14.7861 F       1  UNL1       -0.2010
     35 C          68.0641   92.0612   11.1617 C.3     1  UNL1        0.2526
     36 O          68.5742   91.6207   12.5017 O.3     1  UNL1       -0.4692
@<TRIPOS>BOND
     1    35    36    1
     2    36    28    1
     3    28    29   ar
     4    29    30   ar
     5    30    27    1
     6    27    23    1
     7    23    24   am
     8    24    25    2
     9    24     1    1
    10     1     2   ar
    11     2     3   ar
    12     3     8    1
    13     8     9   ar
    14     9    10   ar
    15    10    11   ar
    16    11    13    1
    17    14    13    1
    18    14    15    1
    19    15    16    1
    20    16    17    1
    21    17    20    1
    22    20    21    1
    23    17    18    1
    24    18    19    1
    25    11    12   ar
    26     3     4   ar
    27     4     5   ar
    28     5     6    1
    29     5     7   ar
    30    30    31   ar
    31    31    32   ar
    32    32    33   ar
    33    33    34    1
    34    33    28   ar
    35     7     1   ar
    36    12     8   ar
    37    19    14    1
    38    23    26    1
    39    21    22    1
@<TRIPOS>MOLECULE
*****
 36 39 0 0 0
SMALL
GASTEIGER

@<TRIPOS>ATOM
      1 C          63.9496   89.1889   15.5870 C.ar    1  UNL1        0.1374
      2 C          64.1369   88.1079   14.5641 C.ar    1  UNL1        0.0461
      3 C          63.7968   86.6870   14.9037 C.ar    1  UNL1        0.1235
      4 N          63.2694   86.3471   16.2661 N.ar    1  UNL1       -0.2275
      5 C          63.0822   87.4281   17.2891 C.ar    1  UNL1        0.1398
      6 C          62.5548   87.0881   18.6515 C.3     1  UNL1        0.0737
      7 N          63.4223   88.8490   16.9496 N.ar    1  UNL1       -0.2261
      8 C          63.9840   85.6060   13.8807 C.ar    1  UNL1        0.2233
      9 N          64.7196   84.3150   14.0867 N.ar    1  UNL1       -0.1062
     10 N          64.6588   83.5373   12.8055 N.ar    1  UNL1       -0.0449
     11 N          63.8857   84.3477   11.8076 N.ar    1  UNL1       -0.1483
     12 N          63.4686   85.6262   12.4722 N.ar    1  UNL1       -0.1280
     13 C          63.5827   83.9494   10.3935 C.3     1  UNL1        0.1832
     14 C          62.5974   84.7413    9.5861 C.3     1  UNL1        0.1710
     15 C          62.7043   84.7696    8.0902 C.3     1  UNL1        0.1738
     16 O          61.7190   85.5614    7.2827 O.3     1  UNL1       -0.3485
     17 C          60.6266   86.3249    7.9711 C.3     1  UNL1        0.1739
     18 C          60.5197   86.2966    9.4670 C.3     1  UNL1        0.1742
     19 O          61.5051   85.5047   10.2744 O.3     1  UNL1       -0.3489
     20 C          59.6412   87.1168    7.1635 C.3     1  UNL1        0.1692
     21 O          58.1886   87.1111    7.5373 O.3     1  UNL1       -0.3794
     22 H          57.8253   86.2209    7.4093 H       1  UNL1        0.2105
     23 N          65.4166   90.9062   14.3028 N.am    1  UNL1       -0.2957
     24 C          64.2897   90.6099   15.2475 C.2     1  UNL1        0.2639
     25 O          63.5029   91.7345   15.8526 O.2     1  UNL1       -0.2685
     26 H          65.9329   90.1680   13.9057 H       1  UNL1        0.1501
     27 C          65.7567   92.3271   13.9633 C.3     1  UNL1        0.1167
     28 C          66.4857   94.2174   10.5508 C.ar    1  UNL1        0.1657
     29 C          65.8969   93.8867   11.8901 C.ar    1  UNL1        0.0366
     30 C          66.3456   92.6578   12.6239 C.ar    1  UNL1        0.0006
     31 C          67.3832   91.7596   12.0184 C.ar    1  UNL1       -0.0001
     32 C          67.9720   92.0904   10.6791 C.ar    1  UNL1        0.0325
     33 C          67.5233   93.3193    9.9453 C.ar    1  UNL1        0.1738
     34 F          68.1122   93.6500    8.6059 F       1  UNL1       -0.2010
     35 C          66.8588   96.6996    9.8802 C.3     1  UNL1        0.2526
     36 O          66.0370   95.4463    9.8170 O.3     1  UNL1       -0.4692
@<TRIPOS>BOND
     1    35    36    1
     2    36    28    1
     3    28    29   ar
     4    29    30   ar
     5    30    27    1
     6    27    23    1
     7    23    24   am
     8    24    25    2
     9    24     1    1
    10     1     2   ar
    11     2     3   ar
    12     3     8    1
    13     8     9   ar
    14     9    10   ar
    15    10    11   ar
    16    11    13    1
    17    14    13    1
    18    14    15    1
    19    15    16    1
    20    16    17    1
    21    17    20    1
    22    20    21    1
    23    17    18    1
    24    18    19    1
    25    11    12   ar
    26     3     4   ar
    27     4     5   ar
    28     5     6    1
    29     5     7   ar
    30    30    31   ar
    31    31    32   ar
    32    32    33   ar
    33    33    34    1
    34    33    28   ar
    35     7     1   ar
    36    12     8   ar
    37    19    14    1
    38    23    26    1
    39    21    22    1
@<TRIPOS>MOLECULE
*****
 36 39 0 0 0
SMALL
GASTEIGER

@<TRIPOS>ATOM
      1 C          63.4804   90.9060   12.3515 C.ar    1  UNL1        0.1374
      2 C          63.2075   89.8338   13.3644 C.ar    1  UNL1        0.0461
      3 C          63.9210   89.8493   14.6837 C.ar    1  UNL1        0.1235
      4 N          64.9074   90.9369   14.9902 N.ar    1  UNL1       -0.2275
      5 C          65.1804   92.0091   13.9773 C.ar    1  UNL1        0.1398
      6 C          66.1668   93.0968   14.2838 C.3     1  UNL1        0.0737
      7 N          64.4668   91.9937   12.6580 N.ar    1  UNL1       -0.2261
      8 C          63.6480   88.7770   15.6966 C.ar    1  UNL1        0.2233
      9 N          63.2092   88.9946   17.1144 N.ar    1  UNL1       -0.1062
     10 N          63.0559   87.6511   17.7636 N.ar    1  UNL1       -0.0449
     11 N          63.4001   86.6031   16.7469 N.ar    1  UNL1       -0.1483
     12 N          63.7660   87.2990   15.4695 N.ar    1  UNL1       -0.1280
     13 C          63.3816   85.1197   16.9688 C.3     1  UNL1        0.1832
     14 C          63.3177   84.1867   15.7961 C.3     1  UNL1        0.1710
     15 C          64.4904   84.0666   14.8685 C.3     1  UNL1        0.1738
     16 O          64.4265   83.1336   13.6958 O.3     1  UNL1       -0.3485
     17 C          63.1900   82.3206   13.4506 C.3     1  UNL1        0.1739
     18 C          62.0173   82.4407   14.3782 C.3     1  UNL1        0.1742
     19 O          62.0813   83.3738   15.5509 O.3     1  UNL1       -0.3489
     20 C          63.1262   81.3875   12.2778 C.3     1  UNL1        0.1692
     21 O          63.6093   81.8405   10.9319 O.3     1  UNL1       -0.3794
     22 H          63.0360   82.5514   10.6051 H       1  UNL1        0.2105
     23 N          61.4362   90.2096   10.9071 N.am    1  UNL1       -0.2957
     24 C          62.7668   90.8905   11.0322 C.2     1  UNL1        0.2639
     25 O          63.3840   91.5561    9.8379 O.2     1  UNL1       -0.2685
     26 H          61.0312   89.7728   11.6909 H       1  UNL1        0.1501
     27 C          60.7227   90.1941    9.5878 C.3     1  UNL1        0.1167
     28 C          61.1388   86.4121    8.4595 C.ar    1  UNL1        0.1657
     29 C          61.3662   87.7112    9.1739 C.ar    1  UNL1        0.0366
     30 C          60.4953   88.8949    8.8733 C.ar    1  UNL1        0.0006
     31 C          59.3970   88.7795    7.8581 C.ar    1  UNL1       -0.0001
     32 C          59.1697   87.4803    7.1437 C.ar    1  UNL1        0.0325
     33 C          60.0406   86.2966    7.4444 C.ar    1  UNL1        0.1738
     34 F          59.8132   84.9974    6.7299 F       1  UNL1       -0.2010
     35 C          62.6631   85.1000   10.1042 C.3     1  UNL1        0.2526
     36 O          62.0097   85.2284    8.7601 O.3     1  UNL1       -0.4692
@<TRIPOS>BOND
     1    35    36    1
     2    36    28    1
     3    28    29   ar
     4    29    30   ar
     5    30    27    1
     6    27    23    1
     7    23    24   am
     8    24    25    2
     9    24     1    1
    10     1     2   ar
    11     2     3   ar
    12     3     8    1
    13     8     9   ar
    14     9    10   ar
    15    10    11   ar
    16    11    13    1
    17    14    13    1
    18    14    15    1
    19    15    16    1
    20    16    17    1
    21    17    20    1
    22    20    21    1
    23    17    18    1
    24    18    19    1
    25    11    12   ar
    26     3     4   ar
    27     4     5   ar
    28     5     6    1
    29     5     7   ar
    30    30    31   ar
    31    31    32   ar
    32    32    33   ar
    33    33    34    1
    34    33    28   ar
    35     7     1   ar
    36    12     8   ar
    37    19    14    1
    38    23    26    1
    39    21    22    1
@<TRIPOS>MOLECULE
*****
 36 39 0 0 0
SMALL
GASTEIGER

@<TRIPOS>ATOM
      1 C          61.9875   86.6312    8.9667 C.ar    1  UNL1        0.1374
      2 C          62.5647   87.5566    9.9965 C.ar    1  UNL1        0.0461
      3 C          62.0059   88.9390   10.1598 C.ar    1  UNL1        0.1235
      4 N          60.8700   89.3960    9.2933 N.ar    1  UNL1       -0.2275
      5 C          60.2928   88.4706    8.2635 C.ar    1  UNL1        0.1398
      6 C          59.1569   88.9277    7.3970 C.3     1  UNL1        0.0737
      7 N          60.8516   87.0882    8.1001 N.ar    1  UNL1       -0.2261
      8 C          62.5831   89.8644   11.1897 C.ar    1  UNL1        0.2233
      9 N          62.9050   91.3157   10.9894 N.ar    1  UNL1       -0.1062
     10 N          63.4606   91.8492   12.2765 N.ar    1  UNL1       -0.0449
     11 N          63.4820   90.7276   13.2723 N.ar    1  UNL1       -0.1483
     12 N          62.9397   89.5010   12.6006 N.ar    1  UNL1       -0.1280
     13 C          63.9616   90.8170   14.6907 C.3     1  UNL1        0.1832
     14 C          65.2562   91.5076   15.0027 C.3     1  UNL1        0.1710
     15 C          65.3749   92.3587   16.2320 C.3     1  UNL1        0.1738
     16 O          66.6695   93.0492   16.5440 O.3     1  UNL1       -0.3485
     17 C          67.8452   92.8886   15.6265 C.3     1  UNL1        0.1739
     18 C          67.7265   92.0374   14.3971 C.3     1  UNL1        0.1742
     19 O          66.4319   91.3469   14.0852 O.3     1  UNL1       -0.3489
     20 C          69.1398   93.5792   15.9384 C.3     1  UNL1        0.1692
     21 O          69.1320   94.9756   16.4860 O.3     1  UNL1       -0.3794
     22 H          68.7810   95.5835   15.8165 H       1  UNL1        0.2105
     23 N          63.2040   84.5636    9.9643 N.am    1  UNL1       -0.2957
     24 C          62.5463   85.2487    8.8033 C.2     1  UNL1        0.2639
     25 O          62.4473   84.5514    7.4789 O.2     1  UNL1       -0.2685
     26 H          63.2689   85.0213   10.8336 H       1  UNL1        0.1501
     27 C          63.7627   83.1812    9.8010 C.3     1  UNL1        0.1167
     28 C          62.8892   81.3579   13.2161 C.ar    1  UNL1        0.1657
     29 C          63.2526   82.4342   12.2366 C.ar    1  UNL1        0.0366
     30 C          63.3993   82.1048   10.7806 C.ar    1  UNL1        0.0006
     31 C          63.1827   80.6991   10.3041 C.ar    1  UNL1       -0.0001
     32 C          62.8194   79.6228   11.2836 C.ar    1  UNL1        0.0325
     33 C          62.6726   79.9522   12.7396 C.ar    1  UNL1        0.1738
     34 F          62.3092   78.8758   13.7191 F       1  UNL1       -0.2010
     35 C          62.5793   83.1140   15.1056 C.3     1  UNL1        0.2526
     36 O          62.7425   81.6873   14.6721 O.3     1  UNL1       -0.4692
@<TRIPOS>BOND
     1    35    36    1
     2    36    28    1
     3    28    29   ar
     4    29    30   ar
     5    30    27    1
     6    27    23    1
     7    23    24   am
     8    24    25    2
     9    24     1    1
    10     1     2   ar
    11     2     3   ar
    12     3     8    1
    13     8     9   ar
    14     9    10   ar
    15    10    11   ar
    16    11    13    1
    17    14    13    1
    18    14    15    1
    19    15    16    1
    20    16    17    1
    21    17    20    1
    22    20    21    1
    23    17    18    1
    24    18    19    1
    25    11    12   ar
    26     3     4   ar
    27     4     5   ar
    28     5     6    1
    29     5     7   ar
    30    30    31   ar
    31    31    32   ar
    32    32    33   ar
    33    33    34    1
    34    33    28   ar
    35     7     1   ar
    36    12     8   ar
    37    19    14    1
    38    23    26    1
    39    21    22    1
@<TRIPOS>MOLECULE
*****
 36 39 0 0 0
SMALL
GASTEIGER

@<TRIPOS>ATOM
      1 C          60.5302   88.5250    9.5924 C.ar    1  UNL1        0.1374
      2 C          59.9929   89.5237    8.6107 C.ar    1  UNL1        0.0461
      3 C          59.6544   89.0949    7.2137 C.ar    1  UNL1        0.1235
      4 N          59.8534   87.6674    6.7984 N.ar    1  UNL1       -0.2275
      5 C          60.3908   86.6685    7.7801 C.ar    1  UNL1        0.1398
      6 C          60.5897   85.2410    7.3648 C.3     1  UNL1        0.0737
      7 N          60.7292   87.0974    9.1771 N.ar    1  UNL1       -0.2261
      8 C          59.1171   90.0937    6.2320 C.ar    1  UNL1        0.2233
      9 N          57.6711   90.4319    6.0205 N.ar    1  UNL1       -0.1062
     10 N          57.5916   91.4769    4.9473 N.ar    1  UNL1       -0.0449
     11 N          58.9885   91.7845    4.4955 N.ar    1  UNL1       -0.1483
     12 N          59.9313   90.9296    5.2896 N.ar    1  UNL1       -0.1280
     13 C          59.3749   92.7733    3.4358 C.3     1  UNL1        0.1832
     14 C          60.7690   92.7733    2.8824 C.3     1  UNL1        0.1710
     15 C          61.1295   93.6979    1.7577 C.3     1  UNL1        0.1738
     16 O          62.5237   93.6979    1.2043 O.3     1  UNL1       -0.3485
     17 C          63.5574   92.7732    1.7757 C.3     1  UNL1        0.1739
     18 C          63.1969   91.8486    2.9004 C.3     1  UNL1        0.1742
     19 O          61.8027   91.8487    3.4538 O.3     1  UNL1       -0.3489
     20 C          64.9516   92.7732    1.2222 C.3     1  UNL1        0.1692
     21 O          65.3977   93.8799    0.3132 O.3     1  UNL1       -0.3794
     22 H          64.8943   93.8407   -0.5150 H       1  UNL1        0.2105
     23 N          62.2729   89.3548   11.3314 N.am    1  UNL1       -0.2957
     24 C          60.8686   88.9538   10.9894 C.2     1  UNL1        0.2639
     25 O          59.8026   88.9816   12.0444 O.2     1  UNL1       -0.2685
     26 H          62.9726   89.3366   10.6390 H       1  UNL1        0.1501
     27 C          62.6114   89.7836   12.7284 C.3     1  UNL1        0.1167
     28 C          65.4735   92.5021   12.3184 C.ar    1  UNL1        0.1657
     29 C          64.2319   91.7011   12.0598 C.ar    1  UNL1        0.0366
     30 C          63.8530   90.5846   12.9871 C.ar    1  UNL1        0.0006
     31 C          64.7156   90.2690   14.1729 C.ar    1  UNL1       -0.0001
     32 C          65.9572   91.0700   14.4315 C.ar    1  UNL1        0.0325
     33 C          66.3361   92.1865   13.5043 C.ar    1  UNL1        0.1738
     34 F          67.5777   92.9875   13.7629 F       1  UNL1       -0.2010
     35 C          66.3833   93.3096   10.0228 C.3     1  UNL1        0.2526
     36 O          65.8524   93.6186   11.3912 O.3     1  UNL1       -0.4692
@<TRIPOS>BOND
     1    35    36    1
     2    36    28    1
     3    28    29   ar
     4    29    30   ar
     5    30    27    1
     6    27    23    1
     7    23    24   am
     8    24    25    2
     9    24     1    1
    10     1     2   ar
    11     2     3   ar
    12     3     8    1
    13     8     9   ar
    14     9    10   ar
    15    10    11   ar
    16    11    13    1
    17    14    13    1
    18    14    15    1
    19    15    16    1
    20    16    17    1
    21    17    20    1
    22    20    21    1
    23    17    18    1
    24    18    19    1
    25    11    12   ar
    26     3     4   ar
    27     4     5   ar
    28     5     6    1
    29     5     7   ar
    30    30    31   ar
    31    31    32   ar
    32    32    33   ar
    33    33    34    1
    34    33    28   ar
    35     7     1   ar
    36    12     8   ar
    37    19    14    1
    38    23    26    1
    39    21    22    1
@<TRIPOS>MOLECULE
*****
 36 39 0 0 0
SMALL
GASTEIGER

@<TRIPOS>ATOM
      1 C          61.9412   90.4152   10.5603 C.ar    1  UNL1        0.1374
      2 C          62.0908   89.5675   11.7887 C.ar    1  UNL1        0.0461
      3 C          63.2858   89.7408   12.6786 C.ar    1  UNL1        0.1235
      4 N          64.3312   90.7619   12.3401 N.ar    1  UNL1       -0.2275
      5 C          64.1816   91.6097   11.1117 C.ar    1  UNL1        0.1398
      6 C          65.2269   92.6307   10.7732 C.3     1  UNL1        0.0737
      7 N          62.9866   91.4363   10.2218 N.ar    1  UNL1       -0.2261
      8 C          63.4354   88.8930   13.9070 C.ar    1  UNL1        0.2233
      9 N          63.1633   89.3276   15.3167 N.ar    1  UNL1       -0.1062
     10 N          63.4430   88.1651   16.2223 N.ar    1  UNL1       -0.0449
     11 N          63.8881   87.0120   15.3723 N.ar    1  UNL1       -0.1483
     12 N          63.8834   87.4619   13.9414 N.ar    1  UNL1       -0.1280
     13 C          64.2708   85.6484   15.8666 C.3     1  UNL1        0.1832
     14 C          63.8544   84.4285   15.0995 C.3     1  UNL1        0.1710
     15 C          62.5676   83.7346   15.4350 C.3     1  UNL1        0.1738
     16 O          62.1512   82.5147   14.6679 O.3     1  UNL1       -0.3485
     17 C          63.0217   81.9887   13.5653 C.3     1  UNL1        0.1739
     18 C          64.3085   82.6826   13.2298 C.3     1  UNL1        0.1742
     19 O          64.7248   83.9025   13.9970 O.3     1  UNL1       -0.3489
     20 C          62.6052   80.7687   12.7982 C.3     1  UNL1        0.1692
     21 O          62.8813   80.6776   11.3266 O.3     1  UNL1       -0.3794
     22 H          62.3616   81.3493   10.8580 H       1  UNL1        0.2105
     23 N          60.8993   89.5922    8.3271 N.am    1  UNL1       -0.2957
     24 C          60.7462   90.2419    9.6704 C.2     1  UNL1        0.2639
     25 O          59.3980   90.7183   10.1238 O.2     1  UNL1       -0.2685
     26 H          61.7841   89.2795    8.0296 H       1  UNL1        0.1501
     27 C          59.7043   89.4188    7.4372 C.3     1  UNL1        0.1167
     28 C          60.5687   91.5982    4.2352 C.ar    1  UNL1        0.1657
     29 C          60.7373   90.7248    5.4429 C.ar    1  UNL1        0.0366
     30 C          59.5356   90.2923    6.2295 C.ar    1  UNL1        0.0006
     31 C          58.1651   90.7333    5.8084 C.ar    1  UNL1       -0.0001
     32 C          57.9965   91.6068    4.6007 C.ar    1  UNL1        0.0325
     33 C          59.1982   92.0392    3.8141 C.ar    1  UNL1        0.1738
     34 F          59.0295   92.9127    2.6063 F       1  UNL1       -0.2010
     35 C          62.9552   91.1188    3.3271 C.3     1  UNL1        0.2526
     36 O          61.7705   92.0307    3.4486 O.3     1  UNL1       -0.4692
@<TRIPOS>BOND
     1    35    36    1
     2    36    28    1
     3    28    29   ar
     4    29    30   ar
     5    30    27    1
     6    27    23    1
     7    23    24   am
     8    24    25    2
     9    24     1    1
    10     1     2   ar
    11     2     3   ar
    12     3     8    1
    13     8     9   ar
    14     9    10   ar
    15    10    11   ar
    16    11    13    1
    17    14    13    1
    18    14    15    1
    19    15    16    1
    20    16    17    1
    21    17    20    1
    22    20    21    1
    23    17    18    1
    24    18    19    1
    25    11    12   ar
    26     3     4   ar
    27     4     5   ar
    28     5     6    1
    29     5     7   ar
    30    30    31   ar
    31    31    32   ar
    32    32    33   ar
    33    33    34    1
    34    33    28   ar
    35     7     1   ar
    36    12     8   ar
    37    19    14    1
    38    23    26    1
    39    21    22    1
@<TRIPOS>MOLECULE
*****
 36 39 0 0 0
SMALL
GASTEIGER

@<TRIPOS>ATOM
      1 C          63.9476   89.2088   15.4679 C.ar    1  UNL1        0.1374
      2 C          63.9271   88.2853   14.2860 C.ar    1  UNL1        0.0461
      3 C          63.4936   86.8594   14.4559 C.ar    1  UNL1        0.1235
      4 N          63.0805   86.3570   15.8075 N.ar    1  UNL1       -0.2275
      5 C          63.1010   87.2805   16.9894 C.ar    1  UNL1        0.1398
      6 C          62.6879   86.7781   18.3410 C.3     1  UNL1        0.0737
      7 N          63.5345   88.7064   16.8196 N.ar    1  UNL1       -0.2261
      8 C          63.4731   85.9359   13.2740 C.ar    1  UNL1        0.2233
      9 N          64.0583   84.5557   13.2233 N.ar    1  UNL1       -0.1062
     10 N          63.8108   83.9972   11.8533 N.ar    1  UNL1       -0.0449
     11 N          63.0725   85.0324   11.0573 N.ar    1  UNL1       -0.1483
     12 N          62.8638   86.2305   11.9353 N.ar    1  UNL1       -0.1280
     13 C          62.6220   84.8936    9.6333 C.3     1  UNL1        0.1832
     14 C          61.7199   85.9279    9.0279 C.3     1  UNL1        0.1710
     15 C          60.8309   85.5656    7.8753 C.3     1  UNL1        0.1738
     16 O          59.9289   86.5998    7.2699 O.3     1  UNL1       -0.3485
     17 C          59.9158   87.9964    7.8170 C.3     1  UNL1        0.1739
     18 C          60.8048   88.3588    8.9696 C.3     1  UNL1        0.1742
     19 O          61.7069   87.3244    9.5749 O.3     1  UNL1       -0.3489
     20 C          59.0137   89.0307    7.2116 C.3     1  UNL1        0.1692
     21 O          59.5958   90.1564    6.4090 O.3     1  UNL1       -0.3794
     22 H          60.1285   90.7242    6.9875 H       1  UNL1        0.2105
     23 N          65.6484   90.9505   14.5604 N.am    1  UNL1       -0.2957
     24 C          64.3811   90.6347   15.2980 C.2     1  UNL1        0.2639
     25 O          63.5472   91.7448   15.8659 O.2     1  UNL1       -0.2685
     26 H          66.1957   90.2220   14.1877 H       1  UNL1        0.1501
     27 C          66.0819   92.3765   14.3906 C.3     1  UNL1        0.1167
     28 C          67.2914   92.5738   10.6159 C.ar    1  UNL1        0.1657
     29 C          67.0054   92.0351   11.9862 C.ar    1  UNL1        0.0366
     30 C          66.3680   92.9152   13.0202 C.ar    1  UNL1        0.0006
     31 C          66.0166   94.3342   12.6837 C.ar    1  UNL1       -0.0001
     32 C          66.3027   94.8729   11.3134 C.ar    1  UNL1        0.0325
     33 C          66.9401   93.9927   10.2795 C.ar    1  UNL1        0.1738
     34 F          67.2261   94.5315    8.9091 F       1  UNL1       -0.2010
     35 C          68.9812   92.2497    8.6692 C.3     1  UNL1        0.2526
     36 O          67.9288   91.6936    9.5820 O.3     1  UNL1       -0.4692
@<TRIPOS>BOND
     1    35    36    1
     2    36    28    1
     3    28    29   ar
     4    29    30   ar
     5    30    27    1
     6    27    23    1
     7    23    24   am
     8    24    25    2
     9    24     1    1
    10     1     2   ar
    11     2     3   ar
    12     3     8    1
    13     8     9   ar
    14     9    10   ar
    15    10    11   ar
    16    11    13    1
    17    14    13    1
    18    14    15    1
    19    15    16    1
    20    16    17    1
    21    17    20    1
    22    20    21    1
    23    17    18    1
    24    18    19    1
    25    11    12   ar
    26     3     4   ar
    27     4     5   ar
    28     5     6    1
    29     5     7   ar
    30    30    31   ar
    31    31    32   ar
    32    32    33   ar
    33    33    34    1
    34    33    28   ar
    35     7     1   ar
    36    12     8   ar
    37    19    14    1
    38    23    26    1
    39    21    22    1
