@<TRIPOS>MOLECULE
*****
 44 49 0 0 0
SMALL
GASTEIGER

@<TRIPOS>ATOM
      1 N          64.1432   89.6762   13.9333 N.am    1  UNL1       -0.2222
      2 C          64.0178   88.1936   14.1236 C.2     1  UNL1        0.3220
      3 O          64.1366   87.4586   15.4258 O.2     1  UNL1       -0.2512
      4 N          63.7527   87.5750   12.7830 N.am    1  UNL1       -0.1892
      5 C          63.7143   88.6753   11.7642 C.2     1  UNL1        0.2529
      6 O          63.4763   88.5067   10.2929 O.2     1  UNL1       -0.2724
      7 C          63.9556   89.9740   12.4752 C.3     1  UNL1        0.1391
      8 C          64.2080   91.1886   13.3183 C.3     1  UNL1        0.0449
      9 C          64.2537   92.5464   12.6827 C.3     1  UNL1        0.0746
     10 N          64.0470   92.6897   11.2039 N.3     1  UNL1       -0.2676
     11 C          63.7946   91.4751   10.3608 C.3     1  UNL1        0.0746
     12 C          63.7489   90.1172   10.9964 C.3     1  UNL1        0.0449
     13 C          66.0135   92.3651   16.1742 C.ar    1  UNL1        0.2293
     14 C          65.7473   91.3572   15.0957 C.ar    1  UNL1        0.0924
     15 C          64.4094   90.6841   15.0119 C.ar    1  UNL1        0.1453
     16 N          63.3377   91.0190   16.0066 N.ar    1  UNL1       -0.2084
     17 C          63.6039   92.0268   17.0851 C.ar    1  UNL1        0.2027
     18 N          64.9418   92.6999   17.1689 N.ar    1  UNL1       -0.1892
     19 C          68.3091   92.9491   15.1072 C.3     1  UNL1        0.2542
     20 O          67.3513   93.0382   16.2581 O.3     1  UNL1       -0.4560
     21 C          63.5599   86.1129   12.5092 C.ar    1  UNL1        0.0813
     22 C          62.5666   85.6677   11.4773 C.ar    1  UNL1        0.0185
     23 C          62.3738   84.2055   11.2035 C.ar    1  UNL1        0.0204
     24 C          63.1744   83.1886   11.9617 C.ar    1  UNL1        0.0811
     25 N          64.1678   83.6338   12.9937 N.ar    1  UNL1       -0.2425
     26 C          64.3605   85.0960   13.2674 C.ar    1  UNL1        0.1141
     27 C          62.9816   81.7264   11.6880 C.ar    1  UNL1        0.0137
     28 C          63.2581   81.1767   10.3200 C.ar    1  UNL1        0.0012
     29 C          63.0653   79.7145   10.0463 C.ar    1  UNL1        0.0012
     30 C          62.5960   78.8022   11.1406 C.ar    1  UNL1        0.0137
     31 C          62.3195   79.3519   12.5085 C.ar    1  UNL1       -0.0031
     32 C          62.5123   80.8140   12.7822 C.ar    1  UNL1       -0.0204
     33 C          62.2358   81.3637   14.1502 C.3     1  UNL1        0.0311
     34 C          62.4032   77.3400   10.8668 C.2     1  UNL1        0.0729
     35 O          61.0268   76.7450   10.9042 O.co2   1  UNL1       -0.5446
     36 O          63.5870   76.4728   10.5556 O.co2   1  UNL1       -0.5446
     37 C          64.0927   94.0477   10.5683 C.3     1  UNL1        0.1183
     38 C          65.3672   94.5456    9.9539 C.ar    1  UNL1        0.0712
     39 N          66.5596   93.6402    9.8625 N.ar    1  UNL1       -0.2471
     40 C          67.8342   94.1382    9.2480 C.ar    1  UNL1        0.0985
     41 C          67.9163   95.5417    8.7250 C.ar    1  UNL1        0.0203
     42 C          66.7240   96.4471    8.8165 C.ar    1  UNL1       -0.0015
     43 C          65.4494   95.9492    9.4309 C.ar    1  UNL1       -0.0069
     44 C          64.2571   96.8546    9.5223 C.3     1  UNL1        0.0323
@<TRIPOS>UNITY_ATOM_ATTR
35 1
charge -1
@<TRIPOS>BOND
     1    19    20    1
     2    20    13    1
     3    13    14   ar
     4    14    15   ar
     5    15     1    1
     6     1     2   am
     7     2     3    2
     8     2     4   am
     9     4    21    1
    10    21    22   ar
    11    22    23   ar
    12    23    24   ar
    13    24    27    1
    14    27    28   ar
    15    28    29   ar
    16    29    30   ar
    17    30    34    1
    18    34    35   ar
    19    34    36   ar
    20    30    31   ar
    21    31    32   ar
    22    32    33    1
    23    24    25   ar
    24    25    26   ar
    25     4     5   am
    26     5     6    2
    27     5     7    1
    28     7     8    1
    29     8     9    1
    30     9    10    1
    31    10    37    1
    32    37    38    1
    33    38    39   ar
    34    39    40   ar
    35    40    41   ar
    36    41    42   ar
    37    42    43   ar
    38    43    44    1
    39    10    11    1
    40    11    12    1
    41    15    16   ar
    42    16    17   ar
    43    17    18   ar
    44    18    13   ar
    45     7     1    1
    46    43    38   ar
    47    26    21   ar
    48    12     7    1
    49    32    27   ar
@<TRIPOS>MOLECULE
*****
 44 49 0 0 0
SMALL
GASTEIGER

@<TRIPOS>ATOM
      1 N          60.3394   88.8320   10.2611 N.am    1  UNL1       -0.2222
      2 C          60.0120   89.8994    9.2593 C.2     1  UNL1        0.3220
      3 O          59.4814   91.2675    9.5701 O.2     1  UNL1       -0.2512
      4 N          60.3083   89.3584    7.8919 N.am    1  UNL1       -0.1892
      5 C          60.8189   87.9567    8.0487 C.2     1  UNL1        0.2529
      6 O          61.2369   87.0410    6.9366 O.2     1  UNL1       -0.2724
      7 C          60.8381   87.6313    9.5130 C.3     1  UNL1        0.1391
      8 C          60.8017   87.4509   11.0016 C.3     1  UNL1        0.0449
      9 C          61.2423   86.1529   11.6106 C.3     1  UNL1        0.0746
     10 N          61.7192   85.0353   10.7311 N.3     1  UNL1       -0.2676
     11 C          61.7555   85.2158    9.2425 C.3     1  UNL1        0.0746
     12 C          61.3150   86.5138    8.6334 C.3     1  UNL1        0.0449
     13 C          61.2213   89.4698   14.0775 C.ar    1  UNL1        0.2293
     14 C          61.3670   89.3564   12.5889 C.ar    1  UNL1        0.0924
     15 C          60.1937   88.9455   11.7497 C.ar    1  UNL1        0.1453
     16 N          58.8746   88.6480   12.3990 N.ar    1  UNL1       -0.2084
     17 C          58.7289   88.7614   13.8875 C.ar    1  UNL1        0.2027
     18 N          59.9023   89.1723   14.7268 N.ar    1  UNL1       -0.1892
     19 C          63.5917   90.5152   14.2731 C.3     1  UNL1        0.2542
     20 O          62.3946   89.8807   14.9168 O.3     1  UNL1       -0.4560
     21 C          60.1261   90.0904    6.5955 C.ar    1  UNL1        0.0813
     22 C          58.7519   90.4912    6.1473 C.ar    1  UNL1        0.0185
     23 C          58.5697   91.2234    4.8508 C.ar    1  UNL1        0.0204
     24 C          59.7617   91.5547    4.0026 C.ar    1  UNL1        0.0811
     25 N          61.1360   91.1539    4.4509 N.ar    1  UNL1       -0.2425
     26 C          61.3181   90.4218    5.7474 C.ar    1  UNL1        0.1141
     27 C          59.5795   92.2869    2.7061 C.ar    1  UNL1        0.0137
     28 C          58.2259   92.3471    2.0627 C.ar    1  UNL1        0.0012
     29 C          58.0437   93.0793    0.7662 C.ar    1  UNL1        0.0012
     30 C          59.2152   93.7511    0.1133 C.ar    1  UNL1        0.0137
     31 C          60.5688   93.6908    0.7568 C.ar    1  UNL1       -0.0031
     32 C          60.7510   92.9587    2.0531 C.ar    1  UNL1       -0.0204
     33 C          62.1046   92.8985    2.6966 C.3     1  UNL1        0.0311
     34 C          59.0330   94.4832   -1.1832 C.2     1  UNL1        0.0729
     35 O          58.1978   95.7283   -1.2304 O.co2   1  UNL1       -0.5446
     36 O          59.6859   93.9702   -2.4324 O.co2   1  UNL1       -0.5446
     37 C          62.1597   83.7372   11.3402 C.3     1  UNL1        0.1183
     38 C          62.8903   83.7332   12.6503 C.ar    1  UNL1        0.0712
     39 N          63.7630   84.8940   13.0259 N.ar    1  UNL1       -0.2471
     40 C          64.4936   84.8899   14.3360 C.ar    1  UNL1        0.0985
     41 C          64.3514   83.7252   15.2704 C.ar    1  UNL1        0.0203
     42 C          63.4787   82.5645   14.8948 C.ar    1  UNL1       -0.0015
     43 C          62.7482   82.5685   13.5847 C.ar    1  UNL1       -0.0069
     44 C          61.8755   81.4077   13.2091 C.3     1  UNL1        0.0323
@<TRIPOS>UNITY_ATOM_ATTR
35 1
charge -1
@<TRIPOS>BOND
     1    19    20    1
     2    20    13    1
     3    13    14   ar
     4    14    15   ar
     5    15     1    1
     6     1     2   am
     7     2     3    2
     8     2     4   am
     9     4    21    1
    10    21    22   ar
    11    22    23   ar
    12    23    24   ar
    13    24    27    1
    14    27    28   ar
    15    28    29   ar
    16    29    30   ar
    17    30    34    1
    18    34    35   ar
    19    34    36   ar
    20    30    31   ar
    21    31    32   ar
    22    32    33    1
    23    24    25   ar
    24    25    26   ar
    25     4     5   am
    26     5     6    2
    27     5     7    1
    28     7     8    1
    29     8     9    1
    30     9    10    1
    31    10    37    1
    32    37    38    1
    33    38    39   ar
    34    39    40   ar
    35    40    41   ar
    36    41    42   ar
    37    42    43   ar
    38    43    44    1
    39    10    11    1
    40    11    12    1
    41    15    16   ar
    42    16    17   ar
    43    17    18   ar
    44    18    13   ar
    45     7     1    1
    46    43    38   ar
    47    26    21   ar
    48    12     7    1
    49    32    27   ar
@<TRIPOS>MOLECULE
*****
 44 49 0 0 0
SMALL
GASTEIGER

@<TRIPOS>ATOM
      1 N          64.6013   89.8247   14.2146 N.am    1  UNL1       -0.2222
      2 C          64.2995   88.4489   14.7308 C.2     1  UNL1        0.3220
      3 O          64.6592   87.9174   16.0866 O.2     1  UNL1       -0.2512
      4 N          63.5748   87.6981   13.6531 N.am    1  UNL1       -0.1892
      5 C          63.4288   88.6098   12.4710 C.2     1  UNL1        0.2529
      6 O          62.7650   88.2674   11.1702 O.2     1  UNL1       -0.2724
      7 C          64.0632   89.9241   12.8179 C.3     1  UNL1        0.1391
      8 C          64.7317   91.1755   13.3047 C.3     1  UNL1        0.0449
      9 C          64.8135   92.3780   12.4119 C.3     1  UNL1        0.0746
     10 N          64.2269   92.3290   11.0322 N.3     1  UNL1       -0.2676
     11 C          63.5585   91.0776   10.5454 C.3     1  UNL1        0.0746
     12 C          63.4766   89.8751   11.4383 C.3     1  UNL1        0.0449
     13 C          67.4839   92.2565   15.4501 C.ar    1  UNL1        0.2293
     14 C          66.7694   91.1709   14.7011 C.ar    1  UNL1        0.0924
     15 C          65.3157   90.9103   14.9635 C.ar    1  UNL1        0.1453
     16 N          64.5765   91.7353   15.9749 N.ar    1  UNL1       -0.2084
     17 C          65.2909   92.8209   16.7238 C.ar    1  UNL1        0.2027
     18 N          66.7447   93.0815   16.4614 N.ar    1  UNL1       -0.1892
     19 C          69.5971   93.7347   15.7643 C.3     1  UNL1        0.2542
     20 O          68.9376   92.5171   15.1878 O.3     1  UNL1       -0.4560
     21 C          63.0827   86.2840   13.7421 C.ar    1  UNL1        0.0813
     22 C          62.9253   85.4649   12.4954 C.ar    1  UNL1        0.0185
     23 C          62.4331   84.0507   12.5844 C.ar    1  UNL1        0.0204
     24 C          62.0983   83.4557   13.9200 C.ar    1  UNL1        0.0811
     25 N          62.2557   84.2749   15.1667 N.ar    1  UNL1       -0.2425
     26 C          62.7479   85.6890   15.0777 C.ar    1  UNL1        0.1141
     27 C          61.6062   82.0415   14.0089 C.ar    1  UNL1        0.0137
     28 C          60.1473   81.7673   14.2243 C.ar    1  UNL1        0.0012
     29 C          59.6551   80.3531   14.3133 C.ar    1  UNL1        0.0012
     30 C          60.6219   79.2132   14.1868 C.ar    1  UNL1        0.0137
     31 C          62.0808   79.4874   13.9715 C.ar    1  UNL1       -0.0031
     32 C          62.5730   80.9015   13.8825 C.ar    1  UNL1       -0.0204
     33 C          64.0319   81.1758   13.6671 C.3     1  UNL1        0.0311
     34 C          60.1298   77.7990   14.2758 C.2     1  UNL1        0.0729
     35 O          61.0637   76.7052   14.7017 O.co2   1  UNL1       -0.5446
     36 O          58.7036   77.4787   13.9388 O.co2   1  UNL1       -0.5446
     37 C          64.3088   93.5316   10.1393 C.3     1  UNL1        0.1183
     38 C          65.6453   94.1144    9.7867 C.ar    1  UNL1        0.0712
     39 N          66.8234   93.2117    9.5698 N.ar    1  UNL1       -0.2471
     40 C          68.1599   93.7945    9.2173 C.ar    1  UNL1        0.0985
     41 C          68.3182   95.2799    9.0816 C.ar    1  UNL1        0.0203
     42 C          67.1400   96.1826    9.2985 C.ar    1  UNL1       -0.0015
     43 C          65.8035   95.5999    9.6511 C.ar    1  UNL1       -0.0069
     44 C          64.6254   96.5025    9.8679 C.3     1  UNL1        0.0323
@<TRIPOS>UNITY_ATOM_ATTR
35 1
charge -1
@<TRIPOS>BOND
     1    19    20    1
     2    20    13    1
     3    13    14   ar
     4    14    15   ar
     5    15     1    1
     6     1     2   am
     7     2     3    2
     8     2     4   am
     9     4    21    1
    10    21    22   ar
    11    22    23   ar
    12    23    24   ar
    13    24    27    1
    14    27    28   ar
    15    28    29   ar
    16    29    30   ar
    17    30    34    1
    18    34    35   ar
    19    34    36   ar
    20    30    31   ar
    21    31    32   ar
    22    32    33    1
    23    24    25   ar
    24    25    26   ar
    25     4     5   am
    26     5     6    2
    27     5     7    1
    28     7     8    1
    29     8     9    1
    30     9    10    1
    31    10    37    1
    32    37    38    1
    33    38    39   ar
    34    39    40   ar
    35    40    41   ar
    36    41    42   ar
    37    42    43   ar
    38    43    44    1
    39    10    11    1
    40    11    12    1
    41    15    16   ar
    42    16    17   ar
    43    17    18   ar
    44    18    13   ar
    45     7     1    1
    46    43    38   ar
    47    26    21   ar
    48    12     7    1
    49    32    27   ar
@<TRIPOS>MOLECULE
*****
 44 49 0 0 0
SMALL
GASTEIGER

@<TRIPOS>ATOM
      1 N          62.7571   89.2203   12.2228 N.am    1  UNL1       -0.2222
      2 C          62.3099   90.1396   11.1249 C.2     1  UNL1        0.3220
      3 O          62.2587   91.6370   11.1950 O.2     1  UNL1       -0.2512
      4 N          61.9230   89.2983    9.9448 N.am    1  UNL1       -0.1892
      5 C          62.1311   87.8592   10.3133 C.2     1  UNL1        0.2529
      6 O          61.8696   86.6760    9.4292 O.2     1  UNL1       -0.2724
      7 C          62.6466   87.8110   11.7211 C.3     1  UNL1        0.1391
      8 C          63.1539   87.9196   13.1285 C.3     1  UNL1        0.0449
      9 C          63.4983   86.6798   13.8993 C.3     1  UNL1        0.0746
     10 N          63.3355   85.3314   13.2628 N.3     1  UNL1       -0.2676
     11 C          62.8282   85.2228   11.8554 C.3     1  UNL1        0.0746
     12 C          62.4837   86.4626   11.0846 C.3     1  UNL1        0.0449
     13 C          65.0526   90.6951   15.1047 C.ar    1  UNL1        0.2293
     14 C          64.5781   90.2782   13.7442 C.ar    1  UNL1        0.0924
     15 C          63.2315   89.6373   13.5833 C.ar    1  UNL1        0.1453
     16 N          62.3594   89.4133   14.7830 N.ar    1  UNL1       -0.2084
     17 C          62.8337   89.8302   16.1435 C.ar    1  UNL1        0.2027
     18 N          64.1804   90.4711   16.3044 N.ar    1  UNL1       -0.1892
     19 C          66.5004   92.7977   15.5870 C.3     1  UNL1        0.2542
     20 O          66.3991   91.3360   15.2657 O.3     1  UNL1       -0.4560
     21 C          61.4169   89.8068    8.6276 C.ar    1  UNL1        0.0813
     22 C          60.1381   89.2691    8.0573 C.ar    1  UNL1        0.0185
     23 C          59.6320   89.7776    6.7400 C.ar    1  UNL1        0.0204
     24 C          60.4047   90.8240    5.9930 C.ar    1  UNL1        0.0811
     25 N          61.6837   91.3618    6.5633 N.ar    1  UNL1       -0.2425
     26 C          62.1897   90.8532    7.8806 C.ar    1  UNL1        0.1141
     27 C          59.8986   91.3325    4.6757 C.ar    1  UNL1        0.0137
     28 C          58.4346   91.5994    4.4872 C.ar    1  UNL1        0.0012
     29 C          57.9285   92.1080    3.1699 C.ar    1  UNL1        0.0012
     30 C          58.8865   92.3496    2.0412 C.ar    1  UNL1        0.0137
     31 C          60.3505   92.0828    2.2297 C.ar    1  UNL1       -0.0031
     32 C          60.8565   91.5742    3.5469 C.ar    1  UNL1       -0.0204
     33 C          62.3205   91.3073    3.7355 C.3     1  UNL1        0.0311
     34 C          58.3804   92.8582    0.7239 C.2     1  UNL1        0.0729
     35 O          58.8636   94.1751    0.1926 O.co2   1  UNL1       -0.5446
     36 O          57.3911   92.0498   -0.0622 O.co2   1  UNL1       -0.5446
     37 C          63.6800   84.0916   14.0337 C.3     1  UNL1        0.1183
     38 C          62.9918   82.7967   13.7181 C.ar    1  UNL1        0.0712
     39 N          61.8092   82.3585   14.5302 N.ar    1  UNL1       -0.2471
     40 C          61.1209   81.0636   14.2145 C.ar    1  UNL1        0.0985
     41 C          61.6153   80.2069   13.0869 C.ar    1  UNL1        0.0203
     42 C          62.7978   80.6451   12.2747 C.ar    1  UNL1       -0.0015
     43 C          63.4861   81.9400   12.5903 C.ar    1  UNL1       -0.0069
     44 C          64.6686   82.3782   11.7782 C.3     1  UNL1        0.0323
@<TRIPOS>UNITY_ATOM_ATTR
35 1
charge -1
@<TRIPOS>BOND
     1    19    20    1
     2    20    13    1
     3    13    14   ar
     4    14    15   ar
     5    15     1    1
     6     1     2   am
     7     2     3    2
     8     2     4   am
     9     4    21    1
    10    21    22   ar
    11    22    23   ar
    12    23    24   ar
    13    24    27    1
    14    27    28   ar
    15    28    29   ar
    16    29    30   ar
    17    30    34    1
    18    34    35   ar
    19    34    36   ar
    20    30    31   ar
    21    31    32   ar
    22    32    33    1
    23    24    25   ar
    24    25    26   ar
    25     4     5   am
    26     5     6    2
    27     5     7    1
    28     7     8    1
    29     8     9    1
    30     9    10    1
    31    10    37    1
    32    37    38    1
    33    38    39   ar
    34    39    40   ar
    35    40    41   ar
    36    41    42   ar
    37    42    43   ar
    38    43    44    1
    39    10    11    1
    40    11    12    1
    41    15    16   ar
    42    16    17   ar
    43    17    18   ar
    44    18    13   ar
    45     7     1    1
    46    43    38   ar
    47    26    21   ar
    48    12     7    1
    49    32    27   ar
