@<TRIPOS>MOLECULE
*****
 56 61 0 0 0
SMALL
GASTEIGER

@<TRIPOS>ATOM
      1 C          62.5774   85.8916   11.4330 C.3     1  UNL1        0.1269
      2 O          62.4149   84.4940   10.9131 O.3     1  UNL1       -0.3830
      3 H          62.5402   84.4902    9.9512 H       1  UNL1        0.2104
      4 C          62.4309   86.1678   12.9000 C.3     1  UNL1        0.0401
      5 C          63.6500   86.2934   13.7649 C.3     1  UNL1        0.0833
      6 O          63.7327   87.3230   16.1488 O.2     1  UNL1       -0.2751
      7 C          63.8150   87.4857   14.6600 C.2     1  UNL1        0.2226
      8 N          64.0625   88.8408   14.0662 N.am    1  UNL1       -0.2999
      9 H          64.1165   88.9475   13.0890 H       1  UNL1        0.1498
     10 C          64.2275   90.0331   14.9612 C.3     1  UNL1        0.1278
     11 C          65.4278   90.9207   14.8143 C.ar    1  UNL1        0.0320
     12 C          66.4630   90.6159   13.7725 C.ar    1  UNL1        0.0004
     13 C          67.6633   91.5035   13.6257 C.ar    1  UNL1       -0.0001
     14 C          67.8284   92.6958   14.5207 C.ar    1  UNL1        0.0031
     15 C          66.7931   93.0005   15.5625 C.ar    1  UNL1        0.0366
     16 C          65.5929   92.1130   15.7093 C.ar    1  UNL1        0.1362
     17 O          64.5576   92.4178   16.7512 O.3     1  UNL1       -0.4730
     18 C          63.3573   91.5302   16.8980 C.3     1  UNL1        0.2364
     19 C          63.1923   90.3378   16.0030 C.3     1  UNL1        0.1762
     20 O          61.9920   89.4503   16.1498 O.3     1  UNL1       -0.3788
     21 H          61.4270   89.7859   16.8632 H       1  UNL1        0.2106
     22 C          64.7040   85.2265   13.7348 C.3     1  UNL1        0.0371
     23 C          64.3075   83.7828   13.6445 C.ar    1  UNL1       -0.0025
     24 C          64.6922   82.9731   12.4418 C.ar    1  UNL1       -0.0011
     25 C          64.2956   81.5293   12.3515 C.ar    1  UNL1        0.0204
     26 C          63.5144   80.8951   13.4639 C.ar    1  UNL1        0.0989
     27 N          63.1297   81.7048   14.6666 N.ar    1  UNL1       -0.2426
     28 C          63.5262   83.1485   14.7569 C.ar    1  UNL1        0.0946
     29 C          62.8863   87.0130   10.4858 C.3     1  UNL1        0.1021
     30 N          61.8012   87.5869    9.6236 N.3     1  UNL1       -0.2621
     31 C          61.1333   86.7303    8.5891 C.3     1  UNL1        0.0901
     32 C          60.0482   87.3041    7.7270 C.3     1  UNL1        0.0899
     33 N          59.6310   88.7347    7.8994 N.3     1  UNL1       -0.2661
     34 C          60.2989   89.5912    8.9339 C.3     1  UNL1        0.0980
     35 C          61.3840   89.0173    9.7960 C.3     1  UNL1        0.1510
     36 C          62.0518   89.8739   10.8305 C.2     1  UNL1        0.2386
     37 O          61.6553   89.7553   12.2722 O.2     1  UNL1       -0.2736
     38 N          63.1164   90.8491   10.4232 N.am    1  UNL1       -0.2961
     39 H          63.3767   90.9270    9.4770 H       1  UNL1        0.1497
     40 C          63.7843   91.7057   11.4577 C.3     1  UNL1        0.1939
     41 C          65.0449   92.4449   11.1193 C.3     1  UNL1        0.4154
     42 F          66.3054   93.1842   10.7809 F       1  UNL1       -0.1682
     43 F          65.0661   91.7909    9.7696 F       1  UNL1       -0.1682
     44 F          65.0236   93.0989   12.4690 F       1  UNL1       -0.1682
     45 C          58.5460   89.3085    7.0372 C.3     1  UNL1        0.1008
     46 C          58.8874   90.2918    5.9570 C.ar    1  UNL1        0.0129
     47 C          57.9415   91.2671    5.3215 C.ar    1  UNL1        0.0176
     48 C          58.7042   92.0504    4.2944 C.ar    1  UNL1        0.0799
     49 N          60.1215   91.5591    4.2953 N.ar    1  UNL1       -0.3038
     50 C          60.2347   90.4722    5.3228 C.ar    1  UNL1        0.0772
     51 C          61.2308   92.0657    3.4219 C.ar    1  UNL1        0.0641
     52 C          62.5709   91.3923    3.4452 C.ar    1  UNL1        0.0175
     53 C          63.6802   91.8990    2.5718 C.ar    1  UNL1        0.0015
     54 C          63.4493   93.0790    1.6751 C.ar    1  UNL1        0.0001
     55 C          62.1091   93.7525    1.6518 C.ar    1  UNL1        0.0015
     56 C          61.0000   93.2458    2.5251 C.ar    1  UNL1        0.0175
@<TRIPOS>BOND
     1     6     7    2
     2     7     8   am
     3    10     8    1
     4    10    11    1
     5    11    12   ar
     6    12    13   ar
     7    13    14   ar
     8    14    15   ar
     9    15    16   ar
    10    16    17    1
    11    17    18    1
    12    18    19    1
    13    19    20    1
    14     7     5    1
    15     5    22    1
    16    22    23    1
    17    23    24   ar
    18    24    25   ar
    19    25    26   ar
    20    26    27   ar
    21    27    28   ar
    22     5     4    1
    23     4     1    1
    24     1     2    1
    25     1    29    1
    26    29    30    1
    27    30    31    1
    28    31    32    1
    29    32    33    1
    30    33    45    1
    31    45    46    1
    32    46    47   ar
    33    47    48   ar
    34    48    49   ar
    35    49    51    1
    36    51    52   ar
    37    52    53   ar
    38    53    54   ar
    39    54    55   ar
    40    55    56   ar
    41    49    50   ar
    42    33    34    1
    43    34    35    1
    44    35    36    1
    45    36    37    2
    46    36    38   am
    47    38    40    1
    48    40    41    1
    49    41    42    1
    50    41    43    1
    51    41    44    1
    52    19    10    1
    53    28    23   ar
    54    35    30    1
    55    16    11   ar
    56    50    46   ar
    57    56    51   ar
    58     8     9    1
    59    20    21    1
    60     2     3    1
    61    38    39    1
@<TRIPOS>MOLECULE
*****
 56 61 0 0 0
SMALL
GASTEIGER

@<TRIPOS>ATOM
      1 C          62.6426   89.2771   12.5372 C.3     1  UNL1        0.1269
      2 O          62.5763   90.7690   12.3960 O.3     1  UNL1       -0.3830
      3 H          62.6187   91.0070   11.4566 H       1  UNL1        0.2104
      4 C          62.5952   88.6498   13.8989 C.3     1  UNL1        0.0401
      5 C          63.5943   89.0493   14.9439 C.3     1  UNL1        0.0833
      6 O          63.6585   91.5106   15.7734 O.2     1  UNL1       -0.2751
      7 C          64.2106   90.4164   14.9085 C.2     1  UNL1        0.2226
      8 N          65.3790   90.6894   14.0083 N.am    1  UNL1       -0.2999
      9 H          65.7414   89.9712   13.4407 H       1  UNL1        0.1498
     10 C          65.9953   92.0564   13.9730 C.3     1  UNL1        0.1278
     11 C          65.8941   92.8929   12.7320 C.ar    1  UNL1        0.0320
     12 C          65.1765   92.3624   11.5264 C.ar    1  UNL1        0.0004
     13 C          65.0753   93.1989   10.2854 C.ar    1  UNL1       -0.0001
     14 C          65.6916   94.5659   10.2501 C.ar    1  UNL1        0.0031
     15 C          66.4091   95.0965   11.4557 C.ar    1  UNL1        0.0366
     16 C          66.5104   94.2600   12.6967 C.ar    1  UNL1        0.1362
     17 O          67.2279   94.7906   13.9024 O.3     1  UNL1       -0.4730
     18 C          67.3292   93.9541   15.1433 C.3     1  UNL1        0.2364
     19 C          66.7128   92.5870   15.1786 C.3     1  UNL1        0.1762
     20 O          66.8141   91.7505   16.4196 O.3     1  UNL1       -0.3788
     21 H          67.3054   92.2382   17.0991 H       1  UNL1        0.2106
     22 C          63.9773   88.0817   16.0242 C.3     1  UNL1        0.0371
     23 C          63.9691   86.6074   15.7480 C.ar    1  UNL1       -0.0025
     24 C          64.9632   86.0180   14.7918 C.ar    1  UNL1       -0.0011
     25 C          64.9550   84.5436   14.5156 C.ar    1  UNL1        0.0204
     26 C          63.9528   83.6587   15.1956 C.ar    1  UNL1        0.0989
     27 N          62.9587   84.2481   16.1518 N.ar    1  UNL1       -0.2426
     28 C          62.9669   85.7224   16.4280 C.ar    1  UNL1        0.0946
     29 C          62.7562   88.4125   11.3166 C.3     1  UNL1        0.1021
     30 N          61.7637   88.5556   10.2011 N.3     1  UNL1       -0.2621
     31 C          60.9839   89.8280   10.0497 C.3     1  UNL1        0.0901
     32 C          59.9913   89.9711    8.9342 C.3     1  UNL1        0.0899
     33 N          59.7786   88.8417    7.9701 N.3     1  UNL1       -0.2661
     34 C          60.5584   87.5694    8.1216 C.3     1  UNL1        0.0980
     35 C          61.5510   87.4263    9.2371 C.3     1  UNL1        0.1510
     36 C          62.3308   86.1540    9.3886 C.2     1  UNL1        0.2386
     37 O          63.1376   85.6274    8.2389 O.2     1  UNL1       -0.2736
     38 N          62.3037   85.4081   10.6898 N.am    1  UNL1       -0.2961
     39 H          61.7741   85.7537   11.4443 H       1  UNL1        0.1497
     40 C          63.0835   84.1357   10.8412 C.3     1  UNL1        0.1939
     41 C          62.6502   83.1050   11.8412 C.3     1  UNL1        0.4154
     42 F          62.2168   82.0743   12.8411 F       1  UNL1       -0.1682
     43 F          63.1834   82.0197   10.9536 F       1  UNL1       -0.1682
     44 F          62.1170   84.1902   12.7287 F       1  UNL1       -0.1682
     45 C          58.7860   88.9848    6.8546 C.3     1  UNL1        0.1008
     46 C          58.9249   90.1045    5.8661 C.ar    1  UNL1        0.0129
     47 C          57.8309   91.0300    5.4227 C.ar    1  UNL1        0.0176
     48 C          58.4120   91.9927    4.4301 C.ar    1  UNL1        0.0799
     49 N          59.8652   91.6622    4.2599 N.ar    1  UNL1       -0.3038
     50 C          60.1822   90.4952    5.1474 C.ar    1  UNL1        0.0772
     51 C          60.8318   92.3738    3.3602 C.ar    1  UNL1        0.0641
     52 C          60.3791   93.5602    2.5619 C.ar    1  UNL1        0.0175
     53 C          61.3456   94.2718    1.6621 C.ar    1  UNL1        0.0015
     54 C          62.7648   93.7969    1.5608 C.ar    1  UNL1        0.0001
     55 C          63.2175   92.6104    2.3592 C.ar    1  UNL1        0.0015
     56 C          62.2510   91.8989    3.2588 C.ar    1  UNL1        0.0175
@<TRIPOS>BOND
     1     6     7    2
     2     7     8   am
     3    10     8    1
     4    10    11    1
     5    11    12   ar
     6    12    13   ar
     7    13    14   ar
     8    14    15   ar
     9    15    16   ar
    10    16    17    1
    11    17    18    1
    12    18    19    1
    13    19    20    1
    14     7     5    1
    15     5    22    1
    16    22    23    1
    17    23    24   ar
    18    24    25   ar
    19    25    26   ar
    20    26    27   ar
    21    27    28   ar
    22     5     4    1
    23     4     1    1
    24     1     2    1
    25     1    29    1
    26    29    30    1
    27    30    31    1
    28    31    32    1
    29    32    33    1
    30    33    45    1
    31    45    46    1
    32    46    47   ar
    33    47    48   ar
    34    48    49   ar
    35    49    51    1
    36    51    52   ar
    37    52    53   ar
    38    53    54   ar
    39    54    55   ar
    40    55    56   ar
    41    49    50   ar
    42    33    34    1
    43    34    35    1
    44    35    36    1
    45    36    37    2
    46    36    38   am
    47    38    40    1
    48    40    41    1
    49    41    42    1
    50    41    43    1
    51    41    44    1
    52    19    10    1
    53    28    23   ar
    54    35    30    1
    55    16    11   ar
    56    50    46   ar
    57    56    51   ar
    58     8     9    1
    59    20    21    1
    60     2     3    1
    61    38    39    1
@<TRIPOS>MOLECULE
*****
 56 61 0 0 0
SMALL
GASTEIGER

@<TRIPOS>ATOM
      1 C          62.6809   89.6111   12.8091 C.3     1  UNL1        0.1269
      2 O          63.7026   88.5201   12.6836 O.3     1  UNL1       -0.3830
      3 H          63.2660   87.6981   12.4104 H       1  UNL1        0.2104
      4 C          63.1031   90.9901   13.2216 C.3     1  UNL1        0.0401
      5 C          64.5530   91.3727   13.1860 C.3     1  UNL1        0.0833
      6 O          64.6598   91.9666   10.6589 O.2     1  UNL1       -0.2751
      7 C          65.0738   92.2360   12.0752 C.2     1  UNL1        0.2226
      8 N          66.0086   93.3685   12.3809 N.am    1  UNL1       -0.2999
      9 H          66.2803   93.5453   13.3105 H       1  UNL1        0.1498
     10 C          66.5294   94.2318   11.2703 C.3     1  UNL1        0.1278
     11 C          67.3266   93.6207   10.1563 C.ar    1  UNL1        0.0320
     12 C          67.6031   92.1465   10.1529 C.ar    1  UNL1        0.0004
     13 C          68.4004   91.5354    9.0389 C.ar    1  UNL1       -0.0001
     14 C          68.9212   92.3986    7.9283 C.ar    1  UNL1        0.0031
     15 C          68.6447   93.8729    7.9317 C.ar    1  UNL1        0.0366
     16 C          67.8474   94.4840    9.0457 C.ar    1  UNL1        0.1362
     17 O          67.5710   95.9583    9.0490 O.3     1  UNL1       -0.4730
     18 C          66.7737   96.5694   10.1630 C.3     1  UNL1        0.2364
     19 C          66.2529   95.7060   11.2737 C.3     1  UNL1        0.1762
     20 O          65.4556   96.3171   12.3877 O.3     1  UNL1       -0.3788
     21 H          65.3698   97.2716   12.2380 H       1  UNL1        0.2106
     22 C          65.4821   90.8921   14.2610 C.3     1  UNL1        0.0371
     23 C          66.6604   91.7288   14.6631 C.ar    1  UNL1       -0.0025
     24 C          66.5424   92.6887   15.8096 C.ar    1  UNL1       -0.0011
     25 C          67.7207   93.5253   16.2117 C.ar    1  UNL1        0.0204
     26 C          69.0170   93.4020   15.4672 C.ar    1  UNL1        0.0989
     27 N          69.1351   92.4421   14.3206 N.ar    1  UNL1       -0.2426
     28 C          67.9568   91.6055   13.9185 C.ar    1  UNL1        0.0946
     29 C          61.2370   89.3231   12.5221 C.3     1  UNL1        0.1021
     30 N          60.7679   89.1819   11.1044 N.3     1  UNL1       -0.2621
     31 C          60.1892   90.3639   10.3846 C.3     1  UNL1        0.0901
     32 C          59.7201   90.2226    8.9668 C.3     1  UNL1        0.0899
     33 N          59.8296   88.8993    8.2689 N.3     1  UNL1       -0.2661
     34 C          60.4082   87.7174    8.9887 C.3     1  UNL1        0.0980
     35 C          60.8773   87.8587   10.4065 C.3     1  UNL1        0.1510
     36 C          61.4560   86.6767   11.1263 C.2     1  UNL1        0.2386
     37 O          61.2171   86.5037   12.5970 O.2     1  UNL1       -0.2736
     38 N          62.2734   85.6678   10.3754 N.am    1  UNL1       -0.2961
     39 H          62.4302   85.7813    9.4101 H       1  UNL1        0.1497
     40 C          62.8521   84.4858   11.0952 C.3     1  UNL1        0.1939
     41 C          63.7645   83.5401   10.3718 C.3     1  UNL1        0.4154
     42 F          64.6768   82.5945    9.6485 F       1  UNL1       -0.1682
     43 F          64.0360   82.8180   11.6582 F       1  UNL1       -0.1682
     44 F          63.4930   84.2622    9.0854 F       1  UNL1       -0.1682
     45 C          59.3604   88.7581    6.8512 C.3     1  UNL1        0.1008
     46 C          59.3465   89.9521    5.9433 C.ar    1  UNL1        0.0129
     47 C          58.1963   90.8937    5.7426 C.ar    1  UNL1        0.0176
     48 C          58.6192   91.9377    4.7520 C.ar    1  UNL1        0.0799
     49 N          60.0310   91.6412    4.3405 N.ar    1  UNL1       -0.3038
     50 C          60.4804   90.4141    5.0768 C.ar    1  UNL1        0.0772
     51 C          60.8495   92.4330    3.3642 C.ar    1  UNL1        0.0641
     52 C          60.2250   93.5690    2.6096 C.ar    1  UNL1        0.0175
     53 C          61.0435   94.3607    1.6332 C.ar    1  UNL1        0.0015
     54 C          62.4865   94.0164    1.4116 C.ar    1  UNL1        0.0001
     55 C          63.1110   92.8803    2.1662 C.ar    1  UNL1        0.0015
     56 C          62.2925   92.0887    3.1425 C.ar    1  UNL1        0.0175
@<TRIPOS>BOND
     1     6     7    2
     2     7     8   am
     3    10     8    1
     4    10    11    1
     5    11    12   ar
     6    12    13   ar
     7    13    14   ar
     8    14    15   ar
     9    15    16   ar
    10    16    17    1
    11    17    18    1
    12    18    19    1
    13    19    20    1
    14     7     5    1
    15     5    22    1
    16    22    23    1
    17    23    24   ar
    18    24    25   ar
    19    25    26   ar
    20    26    27   ar
    21    27    28   ar
    22     5     4    1
    23     4     1    1
    24     1     2    1
    25     1    29    1
    26    29    30    1
    27    30    31    1
    28    31    32    1
    29    32    33    1
    30    33    45    1
    31    45    46    1
    32    46    47   ar
    33    47    48   ar
    34    48    49   ar
    35    49    51    1
    36    51    52   ar
    37    52    53   ar
    38    53    54   ar
    39    54    55   ar
    40    55    56   ar
    41    49    50   ar
    42    33    34    1
    43    34    35    1
    44    35    36    1
    45    36    37    2
    46    36    38   am
    47    38    40    1
    48    40    41    1
    49    41    42    1
    50    41    43    1
    51    41    44    1
    52    19    10    1
    53    28    23   ar
    54    35    30    1
    55    16    11   ar
    56    50    46   ar
    57    56    51   ar
    58     8     9    1
    59    20    21    1
    60     2     3    1
    61    38    39    1
@<TRIPOS>MOLECULE
*****
 56 61 0 0 0
SMALL
GASTEIGER

@<TRIPOS>ATOM
      1 C          62.1820   85.2067    8.4484 C.3     1  UNL1        0.1269
      2 O          62.0433   84.4063    7.1874 O.3     1  UNL1       -0.3830
      3 H          61.1725   84.5719    6.7935 H       1  UNL1        0.2104
      4 C          63.4458   85.1266    9.2525 C.3     1  UNL1        0.0401
      5 C          63.5854   84.0916   10.3292 C.3     1  UNL1        0.0833
      6 O          61.6367   84.5650   11.9811 O.2     1  UNL1       -0.2751
      7 C          63.1026   84.3851   11.7187 C.2     1  UNL1        0.2226
      8 N          64.0857   84.4987   12.8459 N.am    1  UNL1       -0.2999
      9 H          65.0478   84.3806   12.6737 H       1  UNL1        0.1498
     10 C          63.6030   84.7921   14.2354 C.3     1  UNL1        0.1278
     11 C          63.6681   86.1913   14.7722 C.ar    1  UNL1        0.0320
     12 C          64.2159   87.2970   13.9194 C.ar    1  UNL1        0.0004
     13 C          64.2810   88.6962   14.4562 C.ar    1  UNL1       -0.0001
     14 C          63.7983   88.9896   15.8457 C.ar    1  UNL1        0.0031
     15 C          63.2504   87.8839   16.6985 C.ar    1  UNL1        0.0366
     16 C          63.1853   86.4847   16.1617 C.ar    1  UNL1        0.1362
     17 O          62.6375   85.3790   17.0146 O.3     1  UNL1       -0.4730
     18 C          62.5724   83.9798   16.4778 C.3     1  UNL1        0.2364
     19 C          63.0552   83.6864   15.0882 C.3     1  UNL1        0.1762
     20 O          62.9901   82.2873   14.5514 O.3     1  UNL1       -0.3788
     21 H          62.6133   81.6997   15.2250 H       1  UNL1        0.2106
     22 C          64.2078   82.7632   10.0164 C.3     1  UNL1        0.0371
     23 C          63.6049   81.5045   10.5659 C.ar    1  UNL1       -0.0025
     24 C          63.2974   80.3577    9.6491 C.ar    1  UNL1       -0.0011
     25 C          62.6944   79.0990   10.1987 C.ar    1  UNL1        0.0204
     26 C          62.3990   78.9870   11.6651 C.ar    1  UNL1        0.0989
     27 N          62.7065   80.1337   12.5818 N.ar    1  UNL1       -0.2426
     28 C          63.3094   81.3924   12.0323 C.ar    1  UNL1        0.0946
     29 C          61.0568   86.0871    8.9055 C.3     1  UNL1        0.1021
     30 N          61.3533   87.3843    9.5978 N.3     1  UNL1       -0.2621
     31 C          62.3084   87.4162   10.7541 C.3     1  UNL1        0.0901
     32 C          62.6048   88.7134   11.4464 C.3     1  UNL1        0.0899
     33 N          61.9462   89.9788   10.9825 N.3     1  UNL1       -0.2661
     34 C          60.9912   89.9469    9.8263 C.3     1  UNL1        0.0980
     35 C          60.6947   88.6497    9.1339 C.3     1  UNL1        0.1510
     36 C          59.7397   88.6178    7.9777 C.2     1  UNL1        0.2386
     37 O          58.8268   87.4422    7.7912 O.2     1  UNL1       -0.2736
     38 N          59.6975   89.7614    7.0080 N.am    1  UNL1       -0.2961
     39 H          60.2966   90.5330    7.1305 H       1  UNL1        0.1497
     40 C          58.7424   89.7295    5.8518 C.3     1  UNL1        0.1939
     41 C          58.4078   90.9956    5.1202 C.3     1  UNL1        0.4154
     42 F          58.0732   92.2616    4.3887 F       1  UNL1       -0.1682
     43 F          59.8698   91.2737    4.9326 F       1  UNL1       -0.1682
     44 F          56.9458   90.7176    5.3078 F       1  UNL1       -0.1682
     45 C          62.2427   91.2760   11.6748 C.3     1  UNL1        0.1008
     46 C          63.6644   91.6961   11.9038 C.ar    1  UNL1        0.0129
     47 C          64.6101   92.2128   10.8604 C.ar    1  UNL1        0.0176
     48 C          65.9201   92.5093   11.5281 C.ar    1  UNL1        0.0799
     49 N          65.7841   92.1758   12.9843 N.ar    1  UNL1       -0.3038
     50 C          64.3900   91.6732   13.2164 C.ar    1  UNL1        0.0772
     51 C          66.8543   92.3196   14.0254 C.ar    1  UNL1        0.0641
     52 C          66.4870   92.6856   15.4329 C.ar    1  UNL1        0.0175
     53 C          67.5572   92.8295   16.4741 C.ar    1  UNL1        0.0015
     54 C          68.9946   92.6072   16.1077 C.ar    1  UNL1        0.0001
     55 C          69.3620   92.2412   14.7001 C.ar    1  UNL1        0.0015
     56 C          68.2918   92.0974   13.6591 C.ar    1  UNL1        0.0175
@<TRIPOS>BOND
     1     6     7    2
     2     7     8   am
     3    10     8    1
     4    10    11    1
     5    11    12   ar
     6    12    13   ar
     7    13    14   ar
     8    14    15   ar
     9    15    16   ar
    10    16    17    1
    11    17    18    1
    12    18    19    1
    13    19    20    1
    14     7     5    1
    15     5    22    1
    16    22    23    1
    17    23    24   ar
    18    24    25   ar
    19    25    26   ar
    20    26    27   ar
    21    27    28   ar
    22     5     4    1
    23     4     1    1
    24     1     2    1
    25     1    29    1
    26    29    30    1
    27    30    31    1
    28    31    32    1
    29    32    33    1
    30    33    45    1
    31    45    46    1
    32    46    47   ar
    33    47    48   ar
    34    48    49   ar
    35    49    51    1
    36    51    52   ar
    37    52    53   ar
    38    53    54   ar
    39    54    55   ar
    40    55    56   ar
    41    49    50   ar
    42    33    34    1
    43    34    35    1
    44    35    36    1
    45    36    37    2
    46    36    38   am
    47    38    40    1
    48    40    41    1
    49    41    42    1
    50    41    43    1
    51    41    44    1
    52    19    10    1
    53    28    23   ar
    54    35    30    1
    55    16    11   ar
    56    50    46   ar
    57    56    51   ar
    58     8     9    1
    59    20    21    1
    60     2     3    1
    61    38    39    1
@<TRIPOS>MOLECULE
*****
 56 61 0 0 0
SMALL
GASTEIGER

@<TRIPOS>ATOM
      1 C          62.6845   87.0925   12.3235 C.3     1  UNL1        0.1269
      2 O          62.4079   85.6491   12.6235 O.3     1  UNL1       -0.3830
      3 H          62.5052   85.1259   11.8125 H       1  UNL1        0.2104
      4 C          62.5999   88.1154   13.4173 C.3     1  UNL1        0.0401
      5 C          63.8467   88.5724   14.1149 C.3     1  UNL1        0.0833
      6 O          63.5956   91.0405   14.8867 O.2     1  UNL1       -0.2751
      7 C          64.2694   90.0092   14.0309 C.2     1  UNL1        0.2226
      8 N          65.3659   90.4147   13.0911 N.am    1  UNL1       -0.2999
      9 H          65.8081   89.7378   12.5294 H       1  UNL1        0.1498
     10 C          65.7886   91.8514   13.0071 C.3     1  UNL1        0.1278
     11 C          66.6712   92.4369   14.0692 C.ar    1  UNL1        0.0320
     12 C          67.1311   91.5856   15.2154 C.ar    1  UNL1        0.0004
     13 C          68.0137   92.1711   16.2776 C.ar    1  UNL1       -0.0001
     14 C          68.4364   93.6078   16.1936 C.ar    1  UNL1        0.0031
     15 C          67.9765   94.4591   15.0474 C.ar    1  UNL1        0.0366
     16 C          67.0939   93.8736   13.9852 C.ar    1  UNL1        0.1362
     17 O          66.6340   94.7249   12.8390 O.3     1  UNL1       -0.4730
     18 C          65.7514   94.1395   11.7768 C.3     1  UNL1        0.2364
     19 C          65.3287   92.7027   11.8609 C.3     1  UNL1        0.1762
     20 O          64.4461   92.1172   10.7987 O.3     1  UNL1       -0.3788
     21 H          64.2427   92.7964   10.1367 H       1  UNL1        0.2106
     22 C          64.6708   87.5927   14.8965 C.3     1  UNL1        0.0371
     23 C          64.1231   86.2312   15.2068 C.ar    1  UNL1       -0.0025
     24 C          64.7335   85.0153   14.5750 C.ar    1  UNL1       -0.0011
     25 C          64.1856   83.6538   14.8854 C.ar    1  UNL1        0.0204
     26 C          63.0275   83.5082   15.8274 C.ar    1  UNL1        0.0989
     27 N          62.4171   84.7241   16.4591 N.ar    1  UNL1       -0.2426
     28 C          62.9648   86.0855   16.1488 C.ar    1  UNL1        0.0946
     29 C          63.0457   87.5130   10.9297 C.3     1  UNL1        0.1021
     30 N          61.9659   87.8481    9.9438 N.3     1  UNL1       -0.2621
     31 C          61.1912   89.1248   10.0851 C.3     1  UNL1        0.0901
     32 C          60.1114   89.4598    9.0993 C.3     1  UNL1        0.0899
     33 N          59.8064   88.5182    7.9722 N.3     1  UNL1       -0.2661
     34 C          60.5812   87.2416    7.8309 C.3     1  UNL1        0.0980
     35 C          61.6609   86.9065    8.8167 C.3     1  UNL1        0.1510
     36 C          62.4357   85.6299    8.6754 C.2     1  UNL1        0.2386
     37 O          62.7915   85.1155    7.3121 O.2     1  UNL1       -0.2736
     38 N          62.8546   84.8677    9.8976 N.am    1  UNL1       -0.2961
     39 H          62.6211   85.2053   10.7924 H       1  UNL1        0.1497
     40 C          63.6294   83.5911    9.7563 C.3     1  UNL1        0.1939
     41 C          63.9538   82.7723   10.9706 C.3     1  UNL1        0.4154
     42 F          64.2781   81.9536   12.1848 F       1  UNL1       -0.1682
     43 F          63.2143   81.6072   10.3826 F       1  UNL1       -0.1682
     44 F          64.6932   83.9373   11.5586 F       1  UNL1       -0.1682
     45 C          58.7267   88.8533    6.9863 C.3     1  UNL1        0.1008
     46 C          58.9272   89.9700    6.0051 C.ar    1  UNL1        0.0129
     47 C          57.8871   90.9602    5.5716 C.ar    1  UNL1        0.0176
     48 C          58.5200   91.8948    4.5837 C.ar    1  UNL1        0.0799
     49 N          59.9513   91.4822    4.4067 N.ar    1  UNL1       -0.3038
     50 C          60.2029   90.2927    5.2851 C.ar    1  UNL1        0.0772
     51 C          60.9548   92.1432    3.5088 C.ar    1  UNL1        0.0641
     52 C          62.3713   91.6507    3.4764 C.ar    1  UNL1        0.0175
     53 C          63.3748   92.3117    2.5785 C.ar    1  UNL1        0.0015
     54 C          62.9617   93.4651    1.7131 C.ar    1  UNL1        0.0001
     55 C          61.5452   93.9577    1.7455 C.ar    1  UNL1        0.0015
     56 C          60.5418   93.2967    2.6434 C.ar    1  UNL1        0.0175
@<TRIPOS>BOND
     1     6     7    2
     2     7     8   am
     3    10     8    1
     4    10    11    1
     5    11    12   ar
     6    12    13   ar
     7    13    14   ar
     8    14    15   ar
     9    15    16   ar
    10    16    17    1
    11    17    18    1
    12    18    19    1
    13    19    20    1
    14     7     5    1
    15     5    22    1
    16    22    23    1
    17    23    24   ar
    18    24    25   ar
    19    25    26   ar
    20    26    27   ar
    21    27    28   ar
    22     5     4    1
    23     4     1    1
    24     1     2    1
    25     1    29    1
    26    29    30    1
    27    30    31    1
    28    31    32    1
    29    32    33    1
    30    33    45    1
    31    45    46    1
    32    46    47   ar
    33    47    48   ar
    34    48    49   ar
    35    49    51    1
    36    51    52   ar
    37    52    53   ar
    38    53    54   ar
    39    54    55   ar
    40    55    56   ar
    41    49    50   ar
    42    33    34    1
    43    34    35    1
    44    35    36    1
    45    36    37    2
    46    36    38   am
    47    38    40    1
    48    40    41    1
    49    41    42    1
    50    41    43    1
    51    41    44    1
    52    19    10    1
    53    28    23   ar
    54    35    30    1
    55    16    11   ar
    56    50    46   ar
    57    56    51   ar
    58     8     9    1
    59    20    21    1
    60     2     3    1
    61    38    39    1
@<TRIPOS>MOLECULE
*****
 56 61 0 0 0
SMALL
GASTEIGER

@<TRIPOS>ATOM
      1 C          63.2701   93.7835    1.5673 C.3     1  UNL1        0.1269
      2 O          64.4584   93.7103    2.4796 O.3     1  UNL1       -0.3830
      3 H          64.4949   92.8337    2.8933 H       1  UNL1        0.2104
      4 C          62.9879   95.0429    0.8028 C.3     1  UNL1        0.0401
      5 C          62.9950   95.0273   -0.6970 C.3     1  UNL1        0.0833
      6 O          61.1048   93.5437   -1.6850 O.2     1  UNL1       -0.2751
      7 C          61.7051   94.8984   -1.4519 C.2     1  UNL1        0.2226
      8 N          61.0157   96.1241   -1.9736 N.am    1  UNL1       -0.2999
      9 H          61.4097   97.0133   -1.8206 H       1  UNL1        0.1498
     10 C          59.7259   95.9952   -2.7284 C.3     1  UNL1        0.1278
     11 C          59.7321   95.5028   -4.1453 C.ar    1  UNL1        0.0320
     12 C          61.0281   95.1394   -4.8074 C.ar    1  UNL1        0.0004
     13 C          61.0343   94.6471   -6.2243 C.ar    1  UNL1       -0.0001
     14 C          59.7445   94.5182   -6.9791 C.ar    1  UNL1        0.0031
     15 C          58.4485   94.8816   -6.3170 C.ar    1  UNL1        0.0366
     16 C          58.4423   95.3739   -4.9002 C.ar    1  UNL1        0.1362
     17 O          57.1463   95.7373   -4.2381 O.3     1  UNL1       -0.4730
     18 C          57.1401   96.2297   -2.8212 C.3     1  UNL1        0.2364
     19 C          58.4299   96.3586   -2.0664 C.3     1  UNL1        0.1762
     20 O          58.4237   96.8509   -0.6495 O.3     1  UNL1       -0.3788
     21 H          57.5122   97.0396   -0.3767 H       1  UNL1        0.2106
     22 C          64.2919   95.1408   -1.4421 C.3     1  UNL1        0.0371
     23 C          64.3934   94.6383   -2.8518 C.ar    1  UNL1       -0.0025
     24 C          64.1074   93.1978   -3.1570 C.ar    1  UNL1       -0.0011
     25 C          64.2089   92.6953   -4.5667 C.ar    1  UNL1        0.0204
     26 C          64.5965   93.6333   -5.6711 C.ar    1  UNL1        0.0989
     27 N          64.8826   95.0738   -5.3660 N.ar    1  UNL1       -0.2426
     28 C          64.7811   95.5763   -3.9563 C.ar    1  UNL1        0.0946
     29 C          62.3638   92.5974    1.4194 C.3     1  UNL1        0.1021
     30 N          61.4717   92.1890    2.5540 N.3     1  UNL1       -0.2621
     31 C          62.0449   91.4629    3.7348 C.3     1  UNL1        0.0901
     32 C          61.1528   91.0546    4.8695 C.3     1  UNL1        0.0899
     33 N          59.6875   91.3723    4.8232 N.3     1  UNL1       -0.2661
     34 C          59.1144   92.0983    3.6424 C.3     1  UNL1        0.0980
     35 C          60.0065   92.5067    2.5078 C.3     1  UNL1        0.1510
     36 C          59.4334   93.2327    1.3270 C.2     1  UNL1        0.2386
     37 O          59.4057   94.7324    1.3098 O.2     1  UNL1       -0.2736
     38 N          58.8880   92.4591    0.1633 N.am    1  UNL1       -0.2961
     39 H          58.9062   91.4748    0.1745 H       1  UNL1        0.1497
     40 C          58.3149   93.1852   -1.0176 C.3     1  UNL1        0.1939
     41 C          57.2626   92.5301   -1.8623 C.3     1  UNL1        0.4154
     42 F          56.2103   91.8751   -2.7071 F       1  UNL1       -0.1682
     43 F          58.1748   92.5976   -3.0511 F       1  UNL1       -0.1682
     44 F          56.3504   92.4626   -0.6736 F       1  UNL1       -0.1682
     45 C          58.7954   90.9639    5.9579 C.3     1  UNL1        0.1008
     46 C          59.1511   89.7756    6.8014 C.ar    1  UNL1        0.0129
     47 C          58.5876   88.3927    6.6587 C.ar    1  UNL1        0.0176
     48 C          59.2210   87.5240    7.7047 C.ar    1  UNL1        0.0799
     49 N          60.1758   88.3699    8.4938 N.ar    1  UNL1       -0.3038
     50 C          60.1326   89.7615    7.9355 C.ar    1  UNL1        0.0772
     51 C          61.0249   87.9058    9.6401 C.ar    1  UNL1        0.0641
     52 C          61.8740   88.8885   10.3906 C.ar    1  UNL1        0.0175
     53 C          62.7230   88.4243   11.5368 C.ar    1  UNL1        0.0015
     54 C          62.7228   86.9775   11.9324 C.ar    1  UNL1        0.0001
     55 C          61.8737   85.9947   11.1819 C.ar    1  UNL1        0.0015
     56 C          61.0248   86.4589   10.0358 C.ar    1  UNL1        0.0175
@<TRIPOS>BOND
     1     6     7    2
     2     7     8   am
     3    10     8    1
     4    10    11    1
     5    11    12   ar
     6    12    13   ar
     7    13    14   ar
     8    14    15   ar
     9    15    16   ar
    10    16    17    1
    11    17    18    1
    12    18    19    1
    13    19    20    1
    14     7     5    1
    15     5    22    1
    16    22    23    1
    17    23    24   ar
    18    24    25   ar
    19    25    26   ar
    20    26    27   ar
    21    27    28   ar
    22     5     4    1
    23     4     1    1
    24     1     2    1
    25     1    29    1
    26    29    30    1
    27    30    31    1
    28    31    32    1
    29    32    33    1
    30    33    45    1
    31    45    46    1
    32    46    47   ar
    33    47    48   ar
    34    48    49   ar
    35    49    51    1
    36    51    52   ar
    37    52    53   ar
    38    53    54   ar
    39    54    55   ar
    40    55    56   ar
    41    49    50   ar
    42    33    34    1
    43    34    35    1
    44    35    36    1
    45    36    37    2
    46    36    38   am
    47    38    40    1
    48    40    41    1
    49    41    42    1
    50    41    43    1
    51    41    44    1
    52    19    10    1
    53    28    23   ar
    54    35    30    1
    55    16    11   ar
    56    50    46   ar
    57    56    51   ar
    58     8     9    1
    59    20    21    1
    60     2     3    1
    61    38    39    1
@<TRIPOS>MOLECULE
*****
 56 61 0 0 0
SMALL
GASTEIGER

@<TRIPOS>ATOM
      1 C          63.1032   93.9856    1.1891 C.3     1  UNL1        0.1269
      2 O          64.1421   94.2754    2.2315 O.3     1  UNL1       -0.3830
      3 H          64.2341   93.5085    2.8183 H       1  UNL1        0.2104
      4 C          62.7710   95.0187    0.1536 C.3     1  UNL1        0.0401
      5 C          62.8994   94.6881   -1.3038 C.3     1  UNL1        0.0833
      6 O          61.0291   93.1662   -2.2712 O.2     1  UNL1       -0.2751
      7 C          61.6694   94.5168   -2.1452 C.2     1  UNL1        0.2226
      8 N          61.0798   95.6961   -2.8606 N.am    1  UNL1       -0.2999
      9 H          61.5001   96.5825   -2.7778 H       1  UNL1        0.1498
     10 C          59.8499   95.5248   -3.7019 C.3     1  UNL1        0.1278
     11 C          58.5074   95.9099   -3.1549 C.ar    1  UNL1        0.0320
     12 C          58.3947   96.4662   -1.7665 C.ar    1  UNL1        0.0004
     13 C          57.0522   96.8512   -1.2194 C.ar    1  UNL1       -0.0001
     14 C          55.8223   96.6800   -2.0608 C.ar    1  UNL1        0.0031
     15 C          55.9349   96.1236   -3.4492 C.ar    1  UNL1        0.0366
     16 C          57.2775   95.7386   -3.9962 C.ar    1  UNL1        0.1362
     17 O          57.3901   95.1822   -5.3847 O.3     1  UNL1       -0.4730
     18 C          58.7326   94.7972   -5.9318 C.3     1  UNL1        0.2364
     19 C          59.9626   94.9685   -5.0903 C.3     1  UNL1        0.1762
     20 O          61.3051   94.5834   -5.6374 O.3     1  UNL1       -0.3788
     21 H          61.2012   94.2443   -6.5402 H       1  UNL1        0.2106
     22 C          64.2577   94.5289   -1.9200 C.3     1  UNL1        0.0371
     23 C          64.3859   94.1791   -3.3729 C.ar    1  UNL1       -0.0025
     24 C          64.3725   92.7420   -3.8025 C.ar    1  UNL1       -0.0011
     25 C          64.5007   92.3923   -5.2555 C.ar    1  UNL1        0.0204
     26 C          64.6422   93.4796   -6.2790 C.ar    1  UNL1        0.0989
     27 N          64.6555   94.9168   -5.8495 N.ar    1  UNL1       -0.2426
     28 C          64.5274   95.2665   -4.3965 C.ar    1  UNL1        0.0946
     29 C          62.3963   92.6625    1.1822 C.3     1  UNL1        0.1021
     30 N          61.4919   92.2894    2.3192 N.3     1  UNL1       -0.2621
     31 C          62.0644   91.6762    3.5628 C.3     1  UNL1        0.0901
     32 C          61.1600   91.3031    4.6998 C.3     1  UNL1        0.0899
     33 N          59.6831   91.5432    4.5933 N.3     1  UNL1       -0.2661
     34 C          59.1107   92.1565    3.3498 C.3     1  UNL1        0.0980
     35 C          60.0151   92.5296    2.2128 C.3     1  UNL1        0.1510
     36 C          59.4427   93.1428    0.9693 C.2     1  UNL1        0.2386
     37 O          59.4126   94.6344    0.8141 O.2     1  UNL1       -0.2736
     38 N          58.9005   92.2644   -0.1190 N.am    1  UNL1       -0.2961
     39 H          58.9203   91.2853   -0.0171 H       1  UNL1        0.1497
     40 C          58.3281   92.8776   -1.3625 C.3     1  UNL1        0.1939
     41 C          56.8473   92.8476   -1.6004 C.3     1  UNL1        0.4154
     42 F          55.3667   92.8175   -1.8383 F       1  UNL1       -0.1682
     43 F          57.0523   91.9170   -2.7589 F       1  UNL1       -0.1682
     44 F          56.6423   93.7781   -0.4420 F       1  UNL1       -0.1682
     45 C          58.7787   91.1702    5.7304 C.3     1  UNL1        0.1008
     46 C          59.1269   90.0109    6.6163 C.ar    1  UNL1        0.0129
     47 C          58.5424   88.6319    6.5344 C.ar    1  UNL1        0.0176
     48 C          59.1750   87.7958    7.6072 C.ar    1  UNL1        0.0799
     49 N          60.1504   88.6581    8.3521 N.ar    1  UNL1       -0.3038
     50 C          60.1207   90.0271    7.7397 C.ar    1  UNL1        0.0772
     51 C          61.0055   88.2271    9.5068 C.ar    1  UNL1        0.0641
     52 C          61.0349   86.7858    9.9213 C.ar    1  UNL1        0.0175
     53 C          61.8900   86.3548   11.0759 C.ar    1  UNL1        0.0015
     54 C          62.7155   87.3650   11.8159 C.ar    1  UNL1        0.0001
     55 C          62.6861   88.8064   11.4014 C.ar    1  UNL1        0.0015
     56 C          61.8311   89.2373   10.2468 C.ar    1  UNL1        0.0175
@<TRIPOS>BOND
     1     6     7    2
     2     7     8   am
     3    10     8    1
     4    10    11    1
     5    11    12   ar
     6    12    13   ar
     7    13    14   ar
     8    14    15   ar
     9    15    16   ar
    10    16    17    1
    11    17    18    1
    12    18    19    1
    13    19    20    1
    14     7     5    1
    15     5    22    1
    16    22    23    1
    17    23    24   ar
    18    24    25   ar
    19    25    26   ar
    20    26    27   ar
    21    27    28   ar
    22     5     4    1
    23     4     1    1
    24     1     2    1
    25     1    29    1
    26    29    30    1
    27    30    31    1
    28    31    32    1
    29    32    33    1
    30    33    45    1
    31    45    46    1
    32    46    47   ar
    33    47    48   ar
    34    48    49   ar
    35    49    51    1
    36    51    52   ar
    37    52    53   ar
    38    53    54   ar
    39    54    55   ar
    40    55    56   ar
    41    49    50   ar
    42    33    34    1
    43    34    35    1
    44    35    36    1
    45    36    37    2
    46    36    38   am
    47    38    40    1
    48    40    41    1
    49    41    42    1
    50    41    43    1
    51    41    44    1
    52    19    10    1
    53    28    23   ar
    54    35    30    1
    55    16    11   ar
    56    50    46   ar
    57    56    51   ar
    58     8     9    1
    59    20    21    1
    60     2     3    1
    61    38    39    1
@<TRIPOS>MOLECULE
*****
 56 61 0 0 0
SMALL
GASTEIGER

@<TRIPOS>ATOM
      1 C          63.5181   87.9263   15.2952 C.3     1  UNL1        0.1269
      2 O          63.2227   87.1801   16.5624 O.3     1  UNL1       -0.3830
      3 H          62.6925   87.7398   17.1511 H       1  UNL1        0.2104
      4 C          64.3285   87.2760   14.2134 C.3     1  UNL1        0.0401
      5 C          63.8794   85.9737   13.6199 C.3     1  UNL1        0.0833
      6 O          61.4903   85.1678   12.9929 O.2     1  UNL1       -0.2751
      7 C          62.7288   85.9450   12.6579 C.2     1  UNL1        0.2226
      8 N          62.8167   86.6935   11.3610 N.am    1  UNL1       -0.2999
      9 H          63.6295   87.2036   11.1412 H       1  UNL1        0.1498
     10 C          61.6662   86.6648   10.3990 C.3     1  UNL1        0.1278
     11 C          61.8210   85.9981    9.0643 C.ar    1  UNL1        0.0320
     12 C          63.1263   85.3600    8.6916 C.ar    1  UNL1        0.0004
     13 C          63.2810   84.6933    7.3568 C.ar    1  UNL1       -0.0001
     14 C          62.1305   84.6646    6.3949 C.ar    1  UNL1        0.0031
     15 C          60.8252   85.3027    6.7676 C.ar    1  UNL1        0.0366
     16 C          60.6704   85.9694    8.1023 C.ar    1  UNL1        0.1362
     17 O          59.3651   86.6075    8.4751 O.3     1  UNL1       -0.4730
     18 C          59.2103   87.2743    9.8098 C.3     1  UNL1        0.2364
     19 C          60.3609   87.3029   10.7718 C.3     1  UNL1        0.1762
     20 O          60.2061   87.9697   12.1065 O.3     1  UNL1       -0.3788
     21 H          59.3082   88.3279   12.1868 H       1  UNL1        0.2106
     22 C          64.5808   84.7000   13.9884 C.3     1  UNL1        0.0371
     23 C          63.9209   83.3783   13.7289 C.ar    1  UNL1       -0.0025
     24 C          64.1428   82.6725   12.4241 C.ar    1  UNL1       -0.0011
     25 C          63.4828   81.3506   12.1646 C.ar    1  UNL1        0.0204
     26 C          62.6010   80.7346   13.2100 C.ar    1  UNL1        0.0989
     27 N          62.3790   81.4404   14.5148 N.ar    1  UNL1       -0.2426
     28 C          63.0389   82.7622   14.7743 C.ar    1  UNL1        0.0946
     29 C          63.0032   89.3230   15.1098 C.3     1  UNL1        0.1021
     30 N          63.9627   90.4498   14.8657 N.3     1  UNL1       -0.2621
     31 C          64.7367   91.0368   16.0087 C.3     1  UNL1        0.0901
     32 C          65.6962   92.1637   15.7646 C.3     1  UNL1        0.0899
     33 N          65.8818   92.7035   14.3774 N.3     1  UNL1       -0.2661
     34 C          65.1078   92.1165   13.2344 C.3     1  UNL1        0.0980
     35 C          64.1483   90.9896   13.4786 C.3     1  UNL1        0.1510
     36 C          63.3744   90.4026   12.3356 C.2     1  UNL1        0.2386
     37 O          62.4677   89.2303   12.5673 O.2     1  UNL1       -0.2736
     38 N          63.5070   90.9879   10.9609 N.am    1  UNL1       -0.2961
     39 H          64.1021   91.7574   10.8088 H       1  UNL1        0.1497
     40 C          62.7331   90.4009    9.8179 C.3     1  UNL1        0.1939
     41 C          61.2334   90.4243    9.8371 C.3     1  UNL1        0.4154
     42 F          59.7337   90.4477    9.8564 F       1  UNL1       -0.1682
     43 F          61.2037   89.4904    8.6638 F       1  UNL1       -0.1682
     44 F          61.2630   91.3583   11.0105 F       1  UNL1       -0.1682
     45 C          66.8413   93.8303   14.1332 C.3     1  UNL1        0.1008
     46 C          66.5885   94.8026   13.0192 C.ar    1  UNL1        0.0129
     47 C          66.3380   96.2735   13.1727 C.ar    1  UNL1        0.0176
     48 C          66.1365   96.8546   11.8046 C.ar    1  UNL1        0.0799
     49 N          66.2625   95.7428   10.8056 N.ar    1  UNL1       -0.3038
     50 C          66.5418   94.4745   11.5563 C.ar    1  UNL1        0.0772
     51 C          66.1321   95.8758    9.3172 C.ar    1  UNL1        0.0641
     52 C          65.0406   96.7225    8.7327 C.ar    1  UNL1        0.0175
     53 C          64.9101   96.8556    7.2443 C.ar    1  UNL1        0.0015
     54 C          65.8712   96.1419    6.3405 C.ar    1  UNL1        0.0001
     55 C          66.9627   95.2951    6.9250 C.ar    1  UNL1        0.0015
     56 C          67.0931   95.1621    8.4133 C.ar    1  UNL1        0.0175
@<TRIPOS>BOND
     1     6     7    2
     2     7     8   am
     3    10     8    1
     4    10    11    1
     5    11    12   ar
     6    12    13   ar
     7    13    14   ar
     8    14    15   ar
     9    15    16   ar
    10    16    17    1
    11    17    18    1
    12    18    19    1
    13    19    20    1
    14     7     5    1
    15     5    22    1
    16    22    23    1
    17    23    24   ar
    18    24    25   ar
    19    25    26   ar
    20    26    27   ar
    21    27    28   ar
    22     5     4    1
    23     4     1    1
    24     1     2    1
    25     1    29    1
    26    29    30    1
    27    30    31    1
    28    31    32    1
    29    32    33    1
    30    33    45    1
    31    45    46    1
    32    46    47   ar
    33    47    48   ar
    34    48    49   ar
    35    49    51    1
    36    51    52   ar
    37    52    53   ar
    38    53    54   ar
    39    54    55   ar
    40    55    56   ar
    41    49    50   ar
    42    33    34    1
    43    34    35    1
    44    35    36    1
    45    36    37    2
    46    36    38   am
    47    38    40    1
    48    40    41    1
    49    41    42    1
    50    41    43    1
    51    41    44    1
    52    19    10    1
    53    28    23   ar
    54    35    30    1
    55    16    11   ar
    56    50    46   ar
    57    56    51   ar
    58     8     9    1
    59    20    21    1
    60     2     3    1
    61    38    39    1
@<TRIPOS>MOLECULE
*****
 56 61 0 0 0
SMALL
GASTEIGER

@<TRIPOS>ATOM
      1 C          64.5159   89.3610   14.2556 C.3     1  UNL1        0.1269
      2 O          65.8564   89.2609   14.9210 O.3     1  UNL1       -0.3830
      3 H          66.0040   88.3486   15.2155 H       1  UNL1        0.2104
      4 C          64.0464   90.6763   13.7083 C.3     1  UNL1        0.0401
      5 C          64.9654   91.8618   13.7136 C.3     1  UNL1        0.0833
      6 O          64.7597   92.0368   11.1296 O.2     1  UNL1       -0.2751
      7 C          65.2830   92.5703   12.4302 C.2     1  UNL1        0.2226
      8 N          66.1239   93.8124   12.4474 N.am    1  UNL1       -0.2999
      9 H          66.4673   94.1625   13.3010 H       1  UNL1        0.1498
     10 C          66.4414   94.5209   11.1640 C.3     1  UNL1        0.1278
     11 C          67.2454   93.8282   10.1039 C.ar    1  UNL1        0.0320
     12 C          67.7319   92.4270   10.3272 C.ar    1  UNL1        0.0004
     13 C          68.5359   91.7344    9.2671 C.ar    1  UNL1       -0.0001
     14 C          68.8535   92.4429    7.9838 C.ar    1  UNL1        0.0031
     15 C          68.3670   93.8441    7.7605 C.ar    1  UNL1        0.0366
     16 C          67.5630   94.5368    8.8206 C.ar    1  UNL1        0.1362
     17 O          67.0766   95.9381    8.5972 O.3     1  UNL1       -0.4730
     18 C          66.2725   96.6308    9.6573 C.3     1  UNL1        0.2364
     19 C          65.9550   95.9221   10.9407 C.3     1  UNL1        0.1762
     20 O          65.1510   96.6148   12.0008 O.3     1  UNL1       -0.3788
     21 H          64.9182   97.5068   11.6990 H       1  UNL1        0.2106
     22 C          65.5669   92.3387   15.0023 C.3     1  UNL1        0.0371
     23 C          67.0363   92.6297   15.0818 C.ar    1  UNL1       -0.0025
     24 C          67.5535   93.6070   16.0954 C.ar    1  UNL1       -0.0011
     25 C          69.0230   93.8979   16.1749 C.ar    1  UNL1        0.0204
     26 C          69.9750   93.2117   15.2407 C.ar    1  UNL1        0.0989
     27 N          69.4577   92.2345   14.2271 N.ar    1  UNL1       -0.2426
     28 C          67.9884   91.9435   14.1476 C.ar    1  UNL1        0.0946
     29 C          63.6447   88.1456   14.1374 C.3     1  UNL1        0.1021
     30 N          63.1260   87.7223   12.7951 N.3     1  UNL1       -0.2621
     31 C          62.7780   88.7561   11.7654 C.3     1  UNL1        0.0901
     32 C          62.2593   88.3328   10.4231 C.3     1  UNL1        0.0899
     33 N          62.0886   86.8757   10.1105 N.3     1  UNL1       -0.2661
     34 C          62.4366   85.8419   11.1401 C.3     1  UNL1        0.0980
     35 C          62.9553   86.2652   12.4824 C.3     1  UNL1        0.1510
     36 C          63.3033   85.2315   13.5121 C.2     1  UNL1        0.2386
     37 O          64.6912   85.1741   14.0780 O.2     1  UNL1       -0.2736
     38 N          62.2633   84.2550   13.9758 N.am    1  UNL1       -0.2961
     39 H          61.3523   84.2926   13.6044 H       1  UNL1        0.1497
     40 C          62.6112   83.2212   15.0054 C.3     1  UNL1        0.1939
     41 C          62.8044   81.7909   14.5968 C.3     1  UNL1        0.4154
     42 F          62.9976   80.3607   14.1881 F       1  UNL1       -0.1682
     43 F          64.2903   81.9955   14.5831 F       1  UNL1       -0.1682
     44 F          61.3185   81.5864   14.6104 F       1  UNL1       -0.1682
     45 C          61.5700   86.4524    8.7682 C.3     1  UNL1        0.1008
     46 C          60.4902   87.2480    8.0964 C.ar    1  UNL1        0.0129
     47 C          59.0180   86.9681    8.1622 C.ar    1  UNL1        0.0176
     48 C          58.3111   88.0102    7.3474 C.ar    1  UNL1        0.0799
     49 N          59.3464   88.9344    6.7779 N.ar    1  UNL1       -0.3038
     50 C          60.6931   88.4633    7.2408 C.ar    1  UNL1        0.0772
     51 C          59.0814   90.1212    5.8997 C.ar    1  UNL1        0.0641
     52 C          60.2260   90.8615    5.2737 C.ar    1  UNL1        0.0175
     53 C          59.9610   92.0483    4.3955 C.ar    1  UNL1        0.0015
     54 C          58.5514   92.4948    4.1433 C.ar    1  UNL1        0.0001
     55 C          57.4067   91.7545    4.7693 C.ar    1  UNL1        0.0015
     56 C          57.6718   90.5677    5.6474 C.ar    1  UNL1        0.0175
@<TRIPOS>BOND
     1     6     7    2
     2     7     8   am
     3    10     8    1
     4    10    11    1
     5    11    12   ar
     6    12    13   ar
     7    13    14   ar
     8    14    15   ar
     9    15    16   ar
    10    16    17    1
    11    17    18    1
    12    18    19    1
    13    19    20    1
    14     7     5    1
    15     5    22    1
    16    22    23    1
    17    23    24   ar
    18    24    25   ar
    19    25    26   ar
    20    26    27   ar
    21    27    28   ar
    22     5     4    1
    23     4     1    1
    24     1     2    1
    25     1    29    1
    26    29    30    1
    27    30    31    1
    28    31    32    1
    29    32    33    1
    30    33    45    1
    31    45    46    1
    32    46    47   ar
    33    47    48   ar
    34    48    49   ar
    35    49    51    1
    36    51    52   ar
    37    52    53   ar
    38    53    54   ar
    39    54    55   ar
    40    55    56   ar
    41    49    50   ar
    42    33    34    1
    43    34    35    1
    44    35    36    1
    45    36    37    2
    46    36    38   am
    47    38    40    1
    48    40    41    1
    49    41    42    1
    50    41    43    1
    51    41    44    1
    52    19    10    1
    53    28    23   ar
    54    35    30    1
    55    16    11   ar
    56    50    46   ar
    57    56    51   ar
    58     8     9    1
    59    20    21    1
    60     2     3    1
    61    38    39    1
