@<TRIPOS>MOLECULE
*****
 22 25 0 0 0
SMALL
GASTEIGER

@<TRIPOS>ATOM
      1 C          61.6251   87.7601    9.8867 C.3     1  UNL1        0.0594
      2 C          60.4002   88.6016   10.0898 C.3     1  UNL1        0.0749
      3 N          59.1320   88.2681    9.3615 N.3     1  UNL1       -0.2971
      4 C          59.0888   87.0931    8.4300 C.3     1  UNL1        0.0689
      5 C          60.3138   86.2517    8.2268 C.3     1  UNL1        0.0216
      6 C          61.5820   86.5852    8.9552 C.3     1  UNL1        0.0273
      7 C          62.8502   86.9186    9.6835 C.3     1  UNL1        0.0122
      8 H          58.8840   89.0899    8.8106 H       1  UNL1        0.1233
      9 C          60.8996   87.7493    9.6102 C.ar    1  UNL1       -0.0214
     10 C          60.8539   89.0789    8.9172 C.ar    1  UNL1       -0.0034
     11 C          60.1716   90.2430    9.5723 C.ar    1  UNL1        0.0119
     12 C          59.5349   90.0777   10.9204 C.ar    1  UNL1        0.0682
     13 CL         58.8525   91.2419   11.5755 Cl      1  UNL1       -0.0814
     14 C          59.5806   88.7482   11.6134 C.ar    1  UNL1        0.0679
     15 CL         58.9440   88.5828   12.9615 Cl      1  UNL1       -0.0814
     16 C          60.2630   87.5839   10.9583 C.ar    1  UNL1        0.0080
     17 C          64.0406   89.5194   14.2400 C.3     1  UNL1        0.0527
     18 C          63.4926   89.4397   12.8460 C.ar    1  UNL1        0.0660
     19 C          63.6023   90.5026   11.7934 C.ar    1  UNL1        0.0512
     20 S          62.9161   90.0029   10.5566 S.2     1  UNL1       -0.0706
     21 C          62.3823   88.6310   10.8449 C.ar    1  UNL1        0.0887
     22 N          62.7386   88.2829   12.2599 N.ar    1  UNL1       -0.2470
@<TRIPOS>BOND
     1    17    18    1
     2    18    19   ar
     3    19    20   ar
     4    20    21   ar
     5    21     1    1
     6     1     2    1
     7     2     3    1
     8     3     4    1
     9     4     5    1
    10     5     6    1
    11     6     9    1
    12     9    10   ar
    13    10    11   ar
    14    11    12   ar
    15    12    13    1
    16    12    14   ar
    17    14    15    1
    18    14    16   ar
    19     6     7    1
    20    21    22   ar
    21    22    18   ar
    22     6     1    1
    23    16     9   ar
    24     7     1    1
    25     3     8    1
@<TRIPOS>MOLECULE
*****
 22 25 0 0 0
SMALL
GASTEIGER

@<TRIPOS>ATOM
      1 C          65.8177   92.0375   14.7219 C.3     1  UNL1        0.0594
      2 C          66.7916   92.4065   13.6423 C.3     1  UNL1        0.0749
      3 N          68.0482   93.1492   13.9877 N.3     1  UNL1       -0.2971
      4 C          68.3309   93.5229   15.4126 C.3     1  UNL1        0.0689
      5 C          67.3571   93.1540   16.4921 C.3     1  UNL1        0.0216
      6 C          66.1005   92.4113   16.1468 C.3     1  UNL1        0.0273
      7 C          64.8438   91.6685   15.8014 C.3     1  UNL1        0.0122
      8 H          68.0334   94.0176   13.4529 H       1  UNL1        0.1233
      9 C          66.4995   92.4085   14.7009 C.ar    1  UNL1       -0.0214
     10 C          67.3128   91.2751   14.1494 C.ar    1  UNL1       -0.0034
     11 C          67.7118   91.2723   12.7035 C.ar    1  UNL1        0.0119
     12 C          67.2976   92.4030   11.8090 C.ar    1  UNL1        0.0682
     13 CL         67.6967   92.4002   10.3630 Cl      1  UNL1       -0.0814
     14 C          66.4844   93.5364   12.3604 C.ar    1  UNL1        0.0679
     15 CL         66.0703   94.6670   11.4658 Cl      1  UNL1       -0.0814
     16 C          66.0853   93.5391   13.8063 C.ar    1  UNL1        0.0080
     17 C          62.8711   91.2479   10.4120 C.3     1  UNL1        0.0527
     18 C          63.5745   91.0300   11.7187 C.ar    1  UNL1        0.0660
     19 C          63.5480   89.7720   12.5352 C.ar    1  UNL1        0.0512
     20 S          64.3851   89.9963   13.7596 S.2     1  UNL1       -0.0706
     21 C          64.9290   91.3930   13.6998 C.ar    1  UNL1        0.0887
     22 N          64.4281   92.0318   12.4385 N.ar    1  UNL1       -0.2470
@<TRIPOS>BOND
     1    17    18    1
     2    18    19   ar
     3    19    20   ar
     4    20    21   ar
     5    21     1    1
     6     1     2    1
     7     2     3    1
     8     3     4    1
     9     4     5    1
    10     5     6    1
    11     6     9    1
    12     9    10   ar
    13    10    11   ar
    14    11    12   ar
    15    12    13    1
    16    12    14   ar
    17    14    15    1
    18    14    16   ar
    19     6     7    1
    20    21    22   ar
    21    22    18   ar
    22     6     1    1
    23    16     9   ar
    24     7     1    1
    25     3     8    1
@<TRIPOS>MOLECULE
*****
 22 25 0 0 0
SMALL
GASTEIGER

@<TRIPOS>ATOM
      1 C          63.0817   83.7139   12.3462 C.3     1  UNL1        0.0594
      2 C          63.3086   83.9032   13.8168 C.3     1  UNL1        0.0749
      3 N          63.6237   82.7214   14.6852 N.3     1  UNL1       -0.2971
      4 C          63.7119   81.3505   14.0830 C.3     1  UNL1        0.0689
      5 C          63.4851   81.1612   12.6124 C.3     1  UNL1        0.0216
      6 C          63.1700   82.3430   11.7440 C.3     1  UNL1        0.0273
      7 C          62.8549   83.5247   10.8755 C.3     1  UNL1        0.0122
      8 H          62.8997   82.6819   15.4026 H       1  UNL1        0.1233
      9 C          63.2500   83.2437   12.9408 C.ar    1  UNL1       -0.0214
     10 C          62.0249   83.5053   13.7659 C.ar    1  UNL1       -0.0034
     11 C          62.1049   84.4060   14.9626 C.ar    1  UNL1        0.0119
     12 C          63.4100   85.0452   15.3343 C.ar    1  UNL1        0.0682
     13 CL         63.4900   85.9460   16.5311 Cl      1  UNL1       -0.0814
     14 C          64.6351   84.7837   14.5092 C.ar    1  UNL1        0.0679
     15 CL         65.9402   85.4230   14.8809 Cl      1  UNL1       -0.0814
     16 C          64.5551   83.8829   13.3124 C.ar    1  UNL1        0.0080
     17 C          63.5406   88.9501   12.8499 C.3     1  UNL1        0.0527
     18 C          63.0598   87.5946   12.4240 C.ar    1  UNL1        0.0660
     19 C          61.9212   87.3170   11.4878 C.ar    1  UNL1        0.0512
     20 S          61.7908   85.8295   11.3447 S.2     1  UNL1       -0.0706
     21 C          62.8489   85.1877   12.1925 C.ar    1  UNL1        0.0887
     22 N          63.6332   86.2786   12.8596 N.ar    1  UNL1       -0.2470
@<TRIPOS>BOND
     1    17    18    1
     2    18    19   ar
     3    19    20   ar
     4    20    21   ar
     5    21     1    1
     6     1     2    1
     7     2     3    1
     8     3     4    1
     9     4     5    1
    10     5     6    1
    11     6     9    1
    12     9    10   ar
    13    10    11   ar
    14    11    12   ar
    15    12    13    1
    16    12    14   ar
    17    14    15    1
    18    14    16   ar
    19     6     7    1
    20    21    22   ar
    21    22    18   ar
    22     6     1    1
    23    16     9   ar
    24     7     1    1
    25     3     8    1
@<TRIPOS>MOLECULE
*****
 22 25 0 0 0
SMALL
GASTEIGER

@<TRIPOS>ATOM
      1 C          61.4394   86.8041    9.5555 C.3     1  UNL1        0.0594
      2 C          61.2476   87.9313   10.5263 C.3     1  UNL1        0.0749
      3 N          61.9746   87.9229   11.8383 N.3     1  UNL1       -0.2971
      4 C          62.8933   86.7874   12.1795 C.3     1  UNL1        0.0689
      5 C          63.0850   85.6601   11.2087 C.3     1  UNL1        0.0216
      6 C          62.3581   85.6685    9.8967 C.3     1  UNL1        0.0273
      7 C          61.6311   85.6768    8.5846 C.3     1  UNL1        0.0122
      8 H          61.2637   87.9563   12.5691 H       1  UNL1        0.1233
      9 C          61.7170   86.9749   10.2603 C.ar    1  UNL1       -0.0214
     10 C          60.3675   86.9916   10.9152 C.ar    1  UNL1       -0.0034
     11 C          59.7264   88.2980   11.2787 C.ar    1  UNL1        0.0119
     12 C          60.4347   89.5878   10.9874 C.ar    1  UNL1        0.0682
     13 CL         59.7935   90.8943   11.3509 Cl      1  UNL1       -0.0814
     14 C          61.7841   89.5711   10.3325 C.ar    1  UNL1        0.0679
     15 CL         62.4923   90.8609   10.0412 Cl      1  UNL1       -0.0814
     16 C          62.4252   88.2647    9.9689 C.ar    1  UNL1        0.0080
     17 C          59.3167   90.2398    6.1539 C.3     1  UNL1        0.0527
     18 C          59.5135   89.0438    7.0374 C.ar    1  UNL1        0.0660
     19 C          58.5406   87.9179    7.2268 C.ar    1  UNL1        0.0512
     20 S          59.1436   86.9418    8.1932 S.2     1  UNL1       -0.0706
     21 C          60.4892   87.4645    8.6010 C.ar    1  UNL1        0.0887
     22 N          60.7178   88.7635    7.8867 N.ar    1  UNL1       -0.2470
@<TRIPOS>BOND
     1    17    18    1
     2    18    19   ar
     3    19    20   ar
     4    20    21   ar
     5    21     1    1
     6     1     2    1
     7     2     3    1
     8     3     4    1
     9     4     5    1
    10     5     6    1
    11     6     9    1
    12     9    10   ar
    13    10    11   ar
    14    11    12   ar
    15    12    13    1
    16    12    14   ar
    17    14    15    1
    18    14    16   ar
    19     6     7    1
    20    21    22   ar
    21    22    18   ar
    22     6     1    1
    23    16     9   ar
    24     7     1    1
    25     3     8    1
@<TRIPOS>MOLECULE
*****
 22 25 0 0 0
SMALL
GASTEIGER

@<TRIPOS>ATOM
      1 C          63.5895   93.6523    0.6878 C.3     1  UNL1        0.0594
      2 C          62.2180   94.2288    0.4968 C.3     1  UNL1        0.0749
      3 N          61.0979   93.8161    1.4050 N.3     1  UNL1       -0.2971
      4 C          61.3492   92.8268    2.5041 C.3     1  UNL1        0.0689
      5 C          62.7207   92.2503    2.6951 C.3     1  UNL1        0.0216
      6 C          63.8408   92.6630    1.7869 C.3     1  UNL1        0.0273
      7 C          64.9611   93.0757    0.8787 C.3     1  UNL1        0.0122
      8 H          60.3693   93.4187    0.8120 H       1  UNL1        0.1233
      9 C          62.9039   93.5670    1.0421 C.ar    1  UNL1       -0.0214
     10 C          62.7462   94.9972    1.4660 C.ar    1  UNL1       -0.0034
     11 C          61.8092   95.9013    0.7212 C.ar    1  UNL1        0.0119
     12 C          61.0300   95.3752   -0.4476 C.ar    1  UNL1        0.0682
     13 CL         60.0930   96.2793   -1.1924 Cl      1  UNL1       -0.0814
     14 C          61.1876   93.9450   -0.8715 C.ar    1  UNL1        0.0679
     15 CL         60.4084   93.4189   -2.0402 Cl      1  UNL1       -0.0814
     16 C          62.1246   93.0409   -0.1267 C.ar    1  UNL1        0.0080
     17 C          64.6431   95.2675   -4.2277 C.3     1  UNL1        0.0527
     18 C          64.5755   95.2042   -2.7306 C.ar    1  UNL1        0.0660
     19 C          65.1509   96.2105   -1.7787 C.ar    1  UNL1        0.0512
     20 S          64.8516   95.7516   -0.3823 S.2     1  UNL1       -0.0706
     21 C          64.0912   94.4617   -0.4712 C.ar    1  UNL1        0.0887
     22 N          63.9205   94.1233   -1.9225 N.ar    1  UNL1       -0.2470
@<TRIPOS>BOND
     1    17    18    1
     2    18    19   ar
     3    19    20   ar
     4    20    21   ar
     5    21     1    1
     6     1     2    1
     7     2     3    1
     8     3     4    1
     9     4     5    1
    10     5     6    1
    11     6     9    1
    12     9    10   ar
    13    10    11   ar
    14    11    12   ar
    15    12    13    1
    16    12    14   ar
    17    14    15    1
    18    14    16   ar
    19     6     7    1
    20    21    22   ar
    21    22    18   ar
    22     6     1    1
    23    16     9   ar
    24     7     1    1
    25     3     8    1
@<TRIPOS>MOLECULE
*****
 22 25 0 0 0
SMALL
GASTEIGER

@<TRIPOS>ATOM
      1 C          62.8462   93.3851    0.6443 C.3     1  UNL1        0.0594
      2 C          61.3583   93.3997    0.8331 C.3     1  UNL1        0.0749
      3 N          60.7524   92.7916    2.0631 N.3     1  UNL1       -0.2971
      4 C          61.6344   92.1688    3.1043 C.3     1  UNL1        0.0689
      5 C          63.1224   92.1541    2.9155 C.3     1  UNL1        0.0216
      6 C          63.7283   92.7623    1.6855 C.3     1  UNL1        0.0273
      7 C          64.3343   93.3705    0.4555 C.3     1  UNL1        0.0122
      8 H          60.1114   92.0640    1.7467 H       1  UNL1        0.1233
      9 C          62.3600   93.1303    1.1934 C.ar    1  UNL1       -0.0214
     10 C          61.5748   92.1582    0.3636 C.ar    1  UNL1       -0.0034
     11 C          60.2064   92.5262   -0.1285 C.ar    1  UNL1        0.0119
     12 C          59.6232   93.8663    0.2092 C.ar    1  UNL1        0.0682
     13 CL         58.2548   94.2343   -0.2830 Cl      1  UNL1       -0.0814
     14 C          60.4084   94.8384    1.0390 C.ar    1  UNL1        0.0679
     15 CL         59.8252   96.1785    1.3767 Cl      1  UNL1       -0.0814
     16 C          61.7768   94.4704    1.5311 C.ar    1  UNL1        0.0080
     17 C          61.9286   94.3512   -4.4651 C.3     1  UNL1        0.0527
     18 C          62.2651   94.5399   -3.0155 C.ar    1  UNL1        0.0660
     19 C          62.6181   95.8391   -2.3543 C.ar    1  UNL1        0.0512
     20 S          62.8788   95.5647   -0.9028 S.2     1  UNL1       -0.0706
     21 C          62.6869   94.0958   -0.6669 C.ar    1  UNL1        0.0887
     22 N          62.3075   93.4624   -1.9727 N.ar    1  UNL1       -0.2470
@<TRIPOS>BOND
     1    17    18    1
     2    18    19   ar
     3    19    20   ar
     4    20    21   ar
     5    21     1    1
     6     1     2    1
     7     2     3    1
     8     3     4    1
     9     4     5    1
    10     5     6    1
    11     6     9    1
    12     9    10   ar
    13    10    11   ar
    14    11    12   ar
    15    12    13    1
    16    12    14   ar
    17    14    15    1
    18    14    16   ar
    19     6     7    1
    20    21    22   ar
    21    22    18   ar
    22     6     1    1
    23    16     9   ar
    24     7     1    1
    25     3     8    1
@<TRIPOS>MOLECULE
*****
 22 25 0 0 0
SMALL
GASTEIGER

@<TRIPOS>ATOM
      1 C          61.9663   93.1013    1.4918 C.3     1  UNL1        0.0594
      2 C          60.5686   93.6037    1.2817 C.3     1  UNL1        0.0749
      3 N          59.5053   93.3096    2.2979 N.3     1  UNL1       -0.2971
      4 C          59.8396   92.5132    3.5242 C.3     1  UNL1        0.0689
      5 C          61.2372   92.0108    3.7343 C.3     1  UNL1        0.0216
      6 C          62.3005   92.3049    2.7181 C.3     1  UNL1        0.0273
      7 C          63.3640   92.5990    1.7019 C.3     1  UNL1        0.0122
      8 H          58.7648   92.8043    1.8114 H       1  UNL1        0.1233
      9 C          61.3006   93.0548    1.8888 C.ar    1  UNL1       -0.0214
     10 C          61.0890   94.5225    2.1146 C.ar    1  UNL1       -0.0034
     11 C          60.0891   95.2724    1.2853 C.ar    1  UNL1        0.0119
     12 C          59.3007   94.5546    0.2302 C.ar    1  UNL1        0.0682
     13 CL         58.3007   95.3045   -0.5991 Cl      1  UNL1       -0.0814
     14 C          59.5123   93.0869    0.0044 C.ar    1  UNL1        0.0679
     15 CL         58.7239   92.3690   -1.0507 Cl      1  UNL1       -0.0814
     16 C          60.5123   92.3369    0.8337 C.ar    1  UNL1        0.0080
     17 C          62.7543   93.9418   -3.6613 C.3     1  UNL1        0.0527
     18 C          62.7494   94.1173   -2.1716 C.ar    1  UNL1        0.0660
     19 C          63.3207   95.2825   -1.4193 C.ar    1  UNL1        0.0512
     20 S          63.0968   95.0437    0.0447 S.2     1  UNL1       -0.0706
     21 C          62.3872   93.7309    0.1971 C.ar    1  UNL1        0.0887
     22 N          62.1725   93.1584   -1.1727 N.ar    1  UNL1       -0.2470
@<TRIPOS>BOND
     1    17    18    1
     2    18    19   ar
     3    19    20   ar
     4    20    21   ar
     5    21     1    1
     6     1     2    1
     7     2     3    1
     8     3     4    1
     9     4     5    1
    10     5     6    1
    11     6     9    1
    12     9    10   ar
    13    10    11   ar
    14    11    12   ar
    15    12    13    1
    16    12    14   ar
    17    14    15    1
    18    14    16   ar
    19     6     7    1
    20    21    22   ar
    21    22    18   ar
    22     6     1    1
    23    16     9   ar
    24     7     1    1
    25     3     8    1
@<TRIPOS>MOLECULE
*****
 22 25 0 0 0
SMALL
GASTEIGER

@<TRIPOS>ATOM
      1 C          60.7097   86.9981    9.0393 C.3     1  UNL1        0.0594
      2 C          60.9944   88.2335    9.8410 C.3     1  UNL1        0.0749
      3 N          60.4500   89.5584    9.3959 N.3     1  UNL1       -0.2971
      4 C          59.6209   89.6479    8.1491 C.3     1  UNL1        0.0689
      5 C          59.3362   88.4126    7.3474 C.3     1  UNL1        0.0216
      6 C          59.8806   87.0877    7.7925 C.3     1  UNL1        0.0273
      7 C          60.4250   85.7627    8.2376 C.3     1  UNL1        0.0122
      8 H          61.2508   90.1758    9.2620 H       1  UNL1        0.1233
      9 C          60.5236   87.7492    8.9752 C.ar    1  UNL1       -0.0214
     10 C          61.9864   88.0806    8.9458 C.ar    1  UNL1       -0.0034
     11 C          62.6294   88.7421   10.1285 C.ar    1  UNL1        0.0119
     12 C          61.8098   89.0724   11.3406 C.ar    1  UNL1        0.0682
     13 CL         62.4530   89.7339   12.5233 Cl      1  UNL1       -0.0814
     14 C          60.3472   88.7410   11.3700 C.ar    1  UNL1        0.0679
     15 CL         59.5277   89.0713   12.5822 Cl      1  UNL1       -0.0814
     16 C          59.7041   88.0795   10.1873 C.ar    1  UNL1        0.0080
     17 C          62.4254   84.8085   13.5274 C.3     1  UNL1        0.0527
     18 C          62.2914   85.1749   12.0791 C.ar    1  UNL1        0.0660
     19 C          63.1549   84.6743   10.9595 C.ar    1  UNL1        0.0512
     20 S          62.6676   85.2964    9.6844 S.2     1  UNL1       -0.0706
     21 C          61.5027   86.1814   10.0161 C.ar    1  UNL1        0.0887
     22 N          61.2703   86.1064   11.4961 N.ar    1  UNL1       -0.2470
@<TRIPOS>BOND
     1    17    18    1
     2    18    19   ar
     3    19    20   ar
     4    20    21   ar
     5    21     1    1
     6     1     2    1
     7     2     3    1
     8     3     4    1
     9     4     5    1
    10     5     6    1
    11     6     9    1
    12     9    10   ar
    13    10    11   ar
    14    11    12   ar
    15    12    13    1
    16    12    14   ar
    17    14    15    1
    18    14    16   ar
    19     6     7    1
    20    21    22   ar
    21    22    18   ar
    22     6     1    1
    23    16     9   ar
    24     7     1    1
    25     3     8    1
@<TRIPOS>MOLECULE
*****
 22 25 0 0 0
SMALL
GASTEIGER

@<TRIPOS>ATOM
      1 C          62.9684   82.1167   12.1120 C.3     1  UNL1        0.0594
      2 C          63.4786   82.9050   13.2818 C.3     1  UNL1        0.0749
      3 N          63.7850   82.2124   14.5765 N.3     1  UNL1       -0.2971
      4 C          63.5813   80.7315   14.7014 C.3     1  UNL1        0.0689
      5 C          63.0712   79.9433   13.5317 C.3     1  UNL1        0.0216
      6 C          62.7648   80.6359   12.2369 C.3     1  UNL1        0.0273
      7 C          62.4583   81.3285   10.9421 C.3     1  UNL1        0.0122
      8 H          63.2028   82.6509   15.2900 H       1  UNL1        0.1233
      9 C          63.1769   81.9459   12.8402 C.ar    1  UNL1       -0.0214
     10 C          64.5419   82.5028   12.5633 C.ar    1  UNL1       -0.0034
     11 C          64.9540   83.8128   13.1665 C.ar    1  UNL1        0.0119
     12 C          64.0012   84.5660   14.0467 C.ar    1  UNL1        0.0682
     13 CL         64.4133   85.8761   14.6500 Cl      1  UNL1       -0.0814
     14 C          62.6362   84.0092   14.3236 C.ar    1  UNL1        0.0679
     15 CL         61.6833   84.7624   15.2038 Cl      1  UNL1       -0.0814
     16 C          62.2240   82.6991   13.7204 C.ar    1  UNL1        0.0080
     17 C          61.6771   86.9438   10.4052 C.3     1  UNL1        0.0527
     18 C          62.3155   85.5903   10.5077 C.ar    1  UNL1        0.0660
     19 C          63.3201   85.0149    9.5540 C.ar    1  UNL1        0.0512
     20 S          63.6870   83.6435   10.0389 S.2     1  UNL1       -0.0706
     21 C          62.9091   83.3715   11.2923 C.ar    1  UNL1        0.0887
     22 N          62.0615   84.5747   11.5821 N.ar    1  UNL1       -0.2470
@<TRIPOS>BOND
     1    17    18    1
     2    18    19   ar
     3    19    20   ar
     4    20    21   ar
     5    21     1    1
     6     1     2    1
     7     2     3    1
     8     3     4    1
     9     4     5    1
    10     5     6    1
    11     6     9    1
    12     9    10   ar
    13    10    11   ar
    14    11    12   ar
    15    12    13    1
    16    12    14   ar
    17    14    15    1
    18    14    16   ar
    19     6     7    1
    20    21    22   ar
    21    22    18   ar
    22     6     1    1
    23    16     9   ar
    24     7     1    1
    25     3     8    1
