@<TRIPOS>MOLECULE
*****
 34 39 0 0 0
SMALL
GASTEIGER

@<TRIPOS>ATOM
      1 N          63.7806   86.7362   13.8857 N.ar    1  UNL1       -0.2937
      2 C          64.5028   87.4804   14.9695 C.ar    1  UNL1        0.1798
      3 N          64.4829   88.9395   14.6223 N.ar    1  UNL1       -0.2195
      4 C          63.7484   89.0971   13.3239 C.ar    1  UNL1        0.1483
      5 C          63.4188   90.3047   12.4974 C.ar    1  UNL1        0.1518
      6 N          62.6551   90.1505   11.2156 N.ar    1  UNL1       -0.2003
      7 C          62.2210   88.7887   10.7603 C.ar    1  UNL1        0.2264
      8 CL         61.4573   88.6345    9.4786 Cl      1  UNL1       -0.0409
      9 N          62.5507   87.5812   11.5869 N.ar    1  UNL1       -0.1976
     10 C          63.3144   87.7354   12.8687 C.ar    1  UNL1        0.1680
     11 C          63.6665   82.9299   13.1345 C.3     1  UNL1        0.0977
     12 C          64.5700   83.1578   11.9590 C.3     1  UNL1        0.0136
     13 C          64.1447   84.3149   12.8134 C.3     1  UNL1        0.0344
     14 C          63.5628   85.2532   13.8289 C.3     1  UNL1        0.1180
     15 C          62.7250   84.4481   14.7775 C.3     1  UNL1        0.1582
     16 O          61.9578   84.9847   15.9494 O.3     1  UNL1       -0.3800
     17 C          62.7890   83.0122   14.3483 C.3     1  UNL1        0.1471
     18 O          62.0971   81.8608   15.0157 O.3     1  UNL1       -0.3814
     19 H          61.5008   84.2559   16.3978 H       1  UNL1        0.2105
     20 H          61.5932   82.1847   15.7787 H       1  UNL1        0.2105
     21 C          62.6615   79.4132   11.5940 C.3     1  UNL1        0.1107
     22 N          62.7863   80.8968   11.7774 N.am    1  UNL1       -0.3026
     23 C          63.5416   81.4464   12.9511 C.2     1  UNL1        0.2240
     24 O          64.1719   80.5125   13.9413 O.2     1  UNL1       -0.2750
     25 H          62.3726   81.5097   11.1274 H       1  UNL1        0.1495
     26 N          63.8529   91.6664   12.9526 N.pl3   1  UNL1       -0.3184
     27 H          63.1874   92.3068   13.2936 H       1  UNL1        0.1482
     28 C          65.3010   92.0524   12.8883 C.3     1  UNL1        0.0703
     29 C          66.1473   91.9982   14.1256 C.3     1  UNL1        0.0179
     30 C          66.3761   92.3714   15.5603 C.3     1  UNL1        0.0017
     31 C          67.3842   91.5312   14.8339 C.3     1  UNL1        0.0017
     32 C          65.9027   92.4927   11.5868 C.3     1  UNL1        0.0179
     33 C          65.8146   93.2877   10.3179 C.3     1  UNL1        0.0017
     34 C          67.0331   92.4602   10.6013 C.3     1  UNL1        0.0017
@<TRIPOS>BOND
     1    21    22    1
     2    22    23   am
     3    23    24    2
     4    11    23    1
     5    11    12    1
     6    13    12    1
     7    13    14    1
     8    14     1    1
     9     1     2   ar
    10     2     3   ar
    11     3     4   ar
    12     4     5   ar
    13     5    26    1
    14    26    28    1
    15    28    29    1
    16    29    30    1
    17    30    31    1
    18    28    32    1
    19    32    33    1
    20    33    34    1
    21     5     6   ar
    22     6     7   ar
    23     7     8    1
    24     7     9   ar
    25     9    10   ar
    26    14    15    1
    27    15    16    1
    28    15    17    1
    29    17    18    1
    30    13    11    1
    31    10     1   ar
    32    17    11    1
    33    10     4   ar
    34    31    29    1
    35    34    32    1
    36    22    25    1
    37    26    27    1
    38    16    19    1
    39    18    20    1
@<TRIPOS>MOLECULE
*****
 34 39 0 0 0
SMALL
GASTEIGER

@<TRIPOS>ATOM
      1 N          63.7866   86.7313   13.9006 N.ar    1  UNL1       -0.2937
      2 C          64.5052   87.4654   14.9936 C.ar    1  UNL1        0.1798
      3 N          64.4951   88.9266   14.6548 N.ar    1  UNL1       -0.2195
      4 C          63.7703   89.0956   13.3525 C.ar    1  UNL1        0.1483
      5 C          63.4525   90.3096   12.5309 C.ar    1  UNL1        0.1518
      6 N          62.6967   90.1669   11.2430 N.ar    1  UNL1       -0.2003
      7 C          62.2588   88.8101   10.7768 C.ar    1  UNL1        0.2264
      8 CL         61.5031   88.6673    9.4890 Cl      1  UNL1       -0.0409
      9 N          62.5767   87.5960   11.5985 N.ar    1  UNL1       -0.1976
     10 C          63.3324   87.7388   12.8863 C.ar    1  UNL1        0.1680
     11 C          63.6506   82.9315   13.1206 C.3     1  UNL1        0.0977
     12 C          64.5485   83.1643   11.9419 C.3     1  UNL1        0.0136
     13 C          64.1334   84.3168   12.8076 C.3     1  UNL1        0.0344
     14 C          63.5616   85.2498   13.8335 C.3     1  UNL1        0.1180
     15 C          62.7254   84.4412   14.7806 C.3     1  UNL1        0.1582
     16 O          61.9674   84.9722   15.9610 O.3     1  UNL1       -0.3800
     17 C          62.7804   83.0084   14.3400 C.3     1  UNL1        0.1471
     18 O          62.0870   81.8551   15.0025 O.3     1  UNL1       -0.3814
     19 H          61.5096   84.2421   16.4063 H       1  UNL1        0.2105
     20 H          61.5889   82.1753   15.7708 H       1  UNL1        0.2105
     21 C          62.6914   79.4307   11.5160 C.3     1  UNL1        0.1107
     22 N          62.8242   80.9123   11.7101 N.am    1  UNL1       -0.3026
     23 C          63.5179   81.4500   12.9265 C.2     1  UNL1        0.2240
     24 O          64.0788   80.5064   13.9487 O.2     1  UNL1       -0.2750
     25 H          62.4560   81.5316   11.0392 H       1  UNL1        0.1495
     26 N          63.8903   91.6664   12.9970 N.pl3   1  UNL1       -0.3184
     27 H          63.2283   92.3016   13.3542 H       1  UNL1        0.1482
     28 C          65.3370   92.0555   12.9190 C.3     1  UNL1        0.0703
     29 C          65.9272   92.4899   11.6102 C.3     1  UNL1        0.0179
     30 C          65.8016   93.2249   10.3088 C.3     1  UNL1        0.0017
     31 C          67.0751   92.5071   10.6449 C.3     1  UNL1        0.0017
     32 C          66.1932   92.0102   14.1497 C.3     1  UNL1        0.0179
     33 C          66.4094   92.3485   15.5950 C.3     1  UNL1        0.0017
     34 C          67.4602   91.5936   14.8362 C.3     1  UNL1        0.0017
@<TRIPOS>BOND
     1    21    22    1
     2    22    23   am
     3    23    24    2
     4    11    23    1
     5    11    12    1
     6    13    12    1
     7    13    14    1
     8    14     1    1
     9     1     2   ar
    10     2     3   ar
    11     3     4   ar
    12     4     5   ar
    13     5    26    1
    14    26    28    1
    15    28    29    1
    16    29    30    1
    17    30    31    1
    18    28    32    1
    19    32    33    1
    20    33    34    1
    21     5     6   ar
    22     6     7   ar
    23     7     8    1
    24     7     9   ar
    25     9    10   ar
    26    14    15    1
    27    15    16    1
    28    15    17    1
    29    17    18    1
    30    13    11    1
    31    10     1   ar
    32    17    11    1
    33    10     4   ar
    34    31    29    1
    35    34    32    1
    36    22    25    1
    37    26    27    1
    38    16    19    1
    39    18    20    1
@<TRIPOS>MOLECULE
*****
 34 39 0 0 0
SMALL
GASTEIGER

@<TRIPOS>ATOM
      1 N          63.0823   90.0305   12.1318 N.ar    1  UNL1       -0.2937
      2 C          62.1238   90.5505   11.1018 C.ar    1  UNL1        0.1798
      3 N          61.3670   89.3828   10.5417 N.ar    1  UNL1       -0.2195
      4 C          61.8577   88.1412   11.2256 C.ar    1  UNL1        0.1483
      5 C          61.4762   86.6978   11.0804 C.ar    1  UNL1        0.1518
      6 N          62.1549   85.6547   11.9180 N.ar    1  UNL1       -0.2003
      7 C          63.2150   86.0551   12.9007 C.ar    1  UNL1        0.2264
      8 CL         63.8937   85.0121   13.7383 Cl      1  UNL1       -0.0409
      9 N          63.5965   87.4985   13.0459 N.ar    1  UNL1       -0.1976
     10 C          62.9179   88.5415   12.2083 C.ar    1  UNL1        0.1680
     11 C          65.8500   92.3457   13.5619 C.3     1  UNL1        0.0977
     12 C          66.3212   92.6091   12.1625 C.3     1  UNL1        0.0136
     13 C          65.1531   91.6991   12.4017 C.3     1  UNL1        0.0344
     14 C          64.0376   90.8549   12.9429 C.3     1  UNL1        0.1180
     15 C          64.0450   90.9797   14.4377 C.3     1  UNL1        0.1582
     16 O          63.0986   90.3022   15.3838 O.3     1  UNL1       -0.3800
     17 C          65.1652   91.9011   14.8203 C.3     1  UNL1        0.1471
     18 O          65.5355   92.3067   16.2161 O.3     1  UNL1       -0.3814
     19 H          63.3195   90.5504   16.2951 H       1  UNL1        0.2105
     20 H          64.9353   91.8795   16.8469 H       1  UNL1        0.2105
     21 C          69.0562   93.4516   15.6229 C.3     1  UNL1        0.1107
     22 N          68.0345   92.5853   14.9477 N.am    1  UNL1       -0.3026
     23 C          66.8717   93.2120   14.2371 C.2     1  UNL1        0.2240
     24 O          66.7304   94.7049   14.2016 O.2     1  UNL1       -0.2750
     25 H          68.1272   91.6054   14.9710 H       1  UNL1        0.1495
     26 N          60.4160   86.2975   10.0976 N.pl3   1  UNL1       -0.3184
     27 H          59.5798   85.8868   10.4158 H       1  UNL1        0.1482
     28 C          60.6301   86.5228    8.6302 C.3     1  UNL1        0.0703
     29 C          61.5810   85.6483    7.8679 C.3     1  UNL1        0.0179
     30 C          62.9062   84.9538    7.7617 C.3     1  UNL1        0.0017
     31 C          61.9027   84.8280    6.6540 C.3     1  UNL1        0.0017
     32 C          59.8933   87.6227    7.9249 C.3     1  UNL1        0.0179
     33 C          58.6968   88.1001    7.1565 C.3     1  UNL1        0.0017
     34 C          59.8136   89.0504    7.4719 C.3     1  UNL1        0.0017
@<TRIPOS>BOND
     1    21    22    1
     2    22    23   am
     3    23    24    2
     4    11    23    1
     5    11    12    1
     6    13    12    1
     7    13    14    1
     8    14     1    1
     9     1     2   ar
    10     2     3   ar
    11     3     4   ar
    12     4     5   ar
    13     5    26    1
    14    26    28    1
    15    28    29    1
    16    29    30    1
    17    30    31    1
    18    28    32    1
    19    32    33    1
    20    33    34    1
    21     5     6   ar
    22     6     7   ar
    23     7     8    1
    24     7     9   ar
    25     9    10   ar
    26    14    15    1
    27    15    16    1
    28    15    17    1
    29    17    18    1
    30    13    11    1
    31    10     1   ar
    32    17    11    1
    33    10     4   ar
    34    31    29    1
    35    34    32    1
    36    22    25    1
    37    26    27    1
    38    16    19    1
    39    18    20    1
@<TRIPOS>MOLECULE
*****
 34 39 0 0 0
SMALL
GASTEIGER

@<TRIPOS>ATOM
      1 N          63.0784   90.0293   12.1204 N.ar    1  UNL1       -0.2937
      2 C          62.1199   90.5474   11.0894 C.ar    1  UNL1        0.1798
      3 N          61.3638   89.3785   10.5308 N.ar    1  UNL1       -0.2195
      4 C          61.8550   88.1381   11.2165 C.ar    1  UNL1        0.1483
      5 C          61.4743   86.6944   11.0732 C.ar    1  UNL1        0.1518
      6 N          62.1532   85.6528   11.9124 N.ar    1  UNL1       -0.2003
      7 C          63.2129   86.0550   12.8948 C.ar    1  UNL1        0.2264
      8 CL         63.8919   85.0135   13.7340 Cl      1  UNL1       -0.0409
      9 N          63.5937   87.4989   13.0381 N.ar    1  UNL1       -0.1976
     10 C          62.9147   88.5404   12.1989 C.ar    1  UNL1        0.1680
     11 C          65.8464   92.3456   13.5482 C.3     1  UNL1        0.0977
     12 C          66.3214   92.6028   12.1489 C.3     1  UNL1        0.0136
     13 C          65.1512   91.6956   12.3888 C.3     1  UNL1        0.0344
     14 C          64.0330   90.8553   12.9307 C.3     1  UNL1        0.1180
     15 C          64.0371   90.9860   14.4249 C.3     1  UNL1        0.1582
     16 O          63.0872   90.3136   15.3714 O.3     1  UNL1       -0.3800
     17 C          65.1578   91.9070   14.8067 C.3     1  UNL1        0.1471
     18 O          65.5254   92.3175   16.2017 O.3     1  UNL1       -0.3814
     19 H          63.3063   90.5650   16.2823 H       1  UNL1        0.2105
     20 H          64.9229   91.8936   16.8328 H       1  UNL1        0.2105
     21 C          69.0503   93.4544   15.6112 C.3     1  UNL1        0.1107
     22 N          68.0289   92.5871   14.9369 N.am    1  UNL1       -0.3026
     23 C          66.8678   93.2129   14.2225 C.2     1  UNL1        0.2240
     24 O          66.7281   94.7058   14.1825 O.2     1  UNL1       -0.2750
     25 H          68.1206   91.6072   14.9631 H       1  UNL1        0.1495
     26 N          60.4146   86.2921   10.0907 N.pl3   1  UNL1       -0.3184
     27 H          59.5791   85.8800   10.4090 H       1  UNL1        0.1482
     28 C          60.6279   86.5178    8.6231 C.3     1  UNL1        0.0703
     29 C          59.8880   87.6156    7.9178 C.3     1  UNL1        0.0179
     30 C          58.6826   88.0939    7.1642 C.3     1  UNL1        0.0017
     31 C          59.8120   89.0387    7.4499 C.3     1  UNL1        0.0017
     32 C          61.5811   85.6457    7.8610 C.3     1  UNL1        0.0179
     33 C          61.9022   84.8206    6.6502 C.3     1  UNL1        0.0017
     34 C          62.9108   84.9604    7.7516 C.3     1  UNL1        0.0017
@<TRIPOS>BOND
     1    21    22    1
     2    22    23   am
     3    23    24    2
     4    11    23    1
     5    11    12    1
     6    13    12    1
     7    13    14    1
     8    14     1    1
     9     1     2   ar
    10     2     3   ar
    11     3     4   ar
    12     4     5   ar
    13     5    26    1
    14    26    28    1
    15    28    29    1
    16    29    30    1
    17    30    31    1
    18    28    32    1
    19    32    33    1
    20    33    34    1
    21     5     6   ar
    22     6     7   ar
    23     7     8    1
    24     7     9   ar
    25     9    10   ar
    26    14    15    1
    27    15    16    1
    28    15    17    1
    29    17    18    1
    30    13    11    1
    31    10     1   ar
    32    17    11    1
    33    10     4   ar
    34    31    29    1
    35    34    32    1
    36    22    25    1
    37    26    27    1
    38    16    19    1
    39    18    20    1
@<TRIPOS>MOLECULE
*****
 34 39 0 0 0
SMALL
GASTEIGER

@<TRIPOS>ATOM
      1 N          63.1365   90.1981   11.7462 N.ar    1  UNL1       -0.2937
      2 C          62.2118   90.7856   10.7216 C.ar    1  UNL1        0.1798
      3 N          61.3366   89.6841   10.2014 N.ar    1  UNL1       -0.2195
      4 C          61.7204   88.4158   10.9045 C.ar    1  UNL1        0.1483
      5 C          61.2006   87.0128   10.7986 C.ar    1  UNL1        0.1518
      6 N          61.7933   85.9273   11.6475 N.ar    1  UNL1       -0.2003
      7 C          62.9057   86.2450   12.6022 C.ar    1  UNL1        0.2264
      8 CL         63.4984   85.1596   13.4511 Cl      1  UNL1       -0.0409
      9 N          63.4255   87.6481   12.7081 N.ar    1  UNL1       -0.1976
     10 C          62.8328   88.7335   11.8592 C.ar    1  UNL1        0.1680
     11 C          65.6787   91.6380   14.3015 C.3     1  UNL1        0.0977
     12 C          65.2443   90.5945   15.2875 C.3     1  UNL1        0.0136
     13 C          64.6162   90.6478   13.9264 C.3     1  UNL1        0.0344
     14 C          64.1816   90.9441   12.5217 C.3     1  UNL1        0.1180
     15 C          64.9754   92.1174   12.0285 C.3     1  UNL1        0.1582
     16 O          64.8635   92.7507   10.6734 O.3     1  UNL1       -0.3800
     17 C          65.9007   92.5463   13.1285 C.3     1  UNL1        0.1471
     18 O          66.8765   93.6837   13.0665 O.3     1  UNL1       -0.3814
     19 H          65.4872   93.4909   10.6099 H       1  UNL1        0.2105
     20 H          66.8219   94.1095   12.1967 H       1  UNL1        0.2105
     21 C          69.1716   92.6585   15.8853 C.3     1  UNL1        0.1107
     22 N          68.1555   92.0114   14.9914 N.am    1  UNL1       -0.3026
     23 C          66.6948   92.2851   15.1953 C.2     1  UNL1        0.2240
     24 O          66.2502   93.2058   16.2929 O.2     1  UNL1       -0.2750
     25 H          68.4472   91.4071   14.2710 H       1  UNL1        0.1495
     26 N          60.0881   86.6951    9.8439 N.pl3   1  UNL1       -0.3184
     27 H          59.2120   86.4059   10.1875 H       1  UNL1        0.1482
     28 C          60.3105   86.8180    8.3655 C.3     1  UNL1        0.0703
     29 C          59.6771   87.9437    7.6029 C.3     1  UNL1        0.0179
     30 C          59.7835   89.2839    6.9377 C.3     1  UNL1        0.0017
     31 C          58.4736   88.5532    6.9471 C.3     1  UNL1        0.0017
     32 C          61.1663   85.8153    7.6498 C.3     1  UNL1        0.0179
     33 C          62.4616   85.0701    7.5202 C.3     1  UNL1        0.0017
     34 C          61.3533   84.8238    6.5400 C.3     1  UNL1        0.0017
@<TRIPOS>BOND
     1    21    22    1
     2    22    23   am
     3    23    24    2
     4    11    23    1
     5    11    12    1
     6    13    12    1
     7    13    14    1
     8    14     1    1
     9     1     2   ar
    10     2     3   ar
    11     3     4   ar
    12     4     5   ar
    13     5    26    1
    14    26    28    1
    15    28    29    1
    16    29    30    1
    17    30    31    1
    18    28    32    1
    19    32    33    1
    20    33    34    1
    21     5     6   ar
    22     6     7   ar
    23     7     8    1
    24     7     9   ar
    25     9    10   ar
    26    14    15    1
    27    15    16    1
    28    15    17    1
    29    17    18    1
    30    13    11    1
    31    10     1   ar
    32    17    11    1
    33    10     4   ar
    34    31    29    1
    35    34    32    1
    36    22    25    1
    37    26    27    1
    38    16    19    1
    39    18    20    1
@<TRIPOS>MOLECULE
*****
 34 39 0 0 0
SMALL
GASTEIGER

@<TRIPOS>ATOM
      1 N          63.6594   87.0070   13.5938 N.ar    1  UNL1       -0.2937
      2 C          64.4799   87.6356   14.6808 C.ar    1  UNL1        0.1798
      3 N          64.5702   89.1066   14.4015 N.ar    1  UNL1       -0.2195
      4 C          63.8055   89.3871   13.1419 C.ar    1  UNL1        0.1483
      5 C          63.5491   90.6565   12.3850 C.ar    1  UNL1        0.1518
      6 N          62.7297   90.6282   11.1288 N.ar    1  UNL1       -0.2003
      7 C          62.1668   89.3306   10.6296 C.ar    1  UNL1        0.2264
      8 CL         61.3474   89.3022    9.3735 Cl      1  UNL1       -0.0409
      9 N          62.4233   88.0612   11.3866 N.ar    1  UNL1       -0.1976
     10 C          63.2426   88.0895   12.6427 C.ar    1  UNL1        0.1680
     11 C          62.8252   83.2434   14.0462 C.3     1  UNL1        0.0977
     12 C          62.9704   83.4127   15.5295 C.3     1  UNL1        0.0136
     13 C          63.1752   84.5856   14.6172 C.3     1  UNL1        0.0344
     14 C          63.3160   85.5514   13.4782 C.3     1  UNL1        0.1180
     15 C          63.0530   84.8062   12.2032 C.3     1  UNL1        0.1582
     16 O          63.0874   85.3856   10.8201 O.3     1  UNL1       -0.3800
     17 C          62.7497   83.3797   12.5543 C.3     1  UNL1        0.1471
     18 O          62.4275   82.2823   11.5839 O.3     1  UNL1       -0.3814
     19 H          62.8814   84.6922   10.1738 H       1  UNL1        0.2105
     20 H          62.4439   82.6346   10.6803 H       1  UNL1        0.2105
     21 C          60.7245   79.8774   14.1329 C.3     1  UNL1        0.1107
     22 N          61.0582   81.3393   14.0920 N.am    1  UNL1       -0.3026
     23 C          62.4915   81.7815   14.0871 C.2     1  UNL1        0.2240
     24 O          63.5911   80.7619   14.1232 O.2     1  UNL1       -0.2750
     25 H          60.3365   82.0085   14.0683 H       1  UNL1        0.1495
     26 N          64.1120   91.9541   12.8842 N.pl3   1  UNL1       -0.3184
     27 H          63.5163   92.6267   13.2867 H       1  UNL1        0.1482
     28 C          65.5826   92.2270   12.7701 C.3     1  UNL1        0.0703
     29 C          66.4637   92.1063   13.9780 C.3     1  UNL1        0.0179
     30 C          66.6577   92.2201   15.4610 C.3     1  UNL1        0.0017
     31 C          67.7959   91.7833   14.5871 C.3     1  UNL1        0.0017
     32 C          66.1720   92.6207   11.4482 C.3     1  UNL1        0.0179
     33 C          66.2592   93.5808   10.2990 C.3     1  UNL1        0.0017
     34 C          67.1056   92.3425   10.3076 C.3     1  UNL1        0.0017
@<TRIPOS>BOND
     1    21    22    1
     2    22    23   am
     3    23    24    2
     4    11    23    1
     5    11    12    1
     6    13    12    1
     7    13    14    1
     8    14     1    1
     9     1     2   ar
    10     2     3   ar
    11     3     4   ar
    12     4     5   ar
    13     5    26    1
    14    26    28    1
    15    28    29    1
    16    29    30    1
    17    30    31    1
    18    28    32    1
    19    32    33    1
    20    33    34    1
    21     5     6   ar
    22     6     7   ar
    23     7     8    1
    24     7     9   ar
    25     9    10   ar
    26    14    15    1
    27    15    16    1
    28    15    17    1
    29    17    18    1
    30    13    11    1
    31    10     1   ar
    32    17    11    1
    33    10     4   ar
    34    31    29    1
    35    34    32    1
    36    22    25    1
    37    26    27    1
    38    16    19    1
    39    18    20    1
@<TRIPOS>MOLECULE
*****
 34 39 0 0 0
SMALL
GASTEIGER

@<TRIPOS>ATOM
      1 N          63.8506   89.5873   12.7605 N.ar    1  UNL1       -0.2937
      2 C          63.1033   89.7506   11.4702 C.ar    1  UNL1        0.1798
      3 N          62.5175   88.4197   11.1022 N.ar    1  UNL1       -0.2195
      4 C          62.9027   87.4338   12.1650 C.ar    1  UNL1        0.1483
      5 C          62.6097   85.9722   12.3319 C.ar    1  UNL1        0.1518
      6 N          63.1406   85.2322   13.5238 N.ar    1  UNL1       -0.2003
      7 C          63.9645   85.9538   14.5488 C.ar    1  UNL1        0.2264
      8 CL         64.4954   85.2138   15.7406 Cl      1  UNL1       -0.0409
      9 N          64.2575   87.4154   14.3818 N.ar    1  UNL1       -0.1976
     10 C          63.7266   88.1554   13.1899 C.ar    1  UNL1        0.1680
     11 C          66.1647   92.4387   14.0173 C.3     1  UNL1        0.0977
     12 C          66.8564   92.4333   12.6864 C.3     1  UNL1        0.0136
     13 C          65.7270   91.4817   12.9484 C.3     1  UNL1        0.0344
     14 C          64.5917   90.6663   13.4929 C.3     1  UNL1        0.1180
     15 C          64.3277   91.1195   14.8982 C.3     1  UNL1        0.1582
     16 O          63.2763   90.5732   15.8179 O.3     1  UNL1       -0.3800
     17 C          65.2999   92.2150   15.2223 C.3     1  UNL1        0.1471
     18 O          65.3912   92.9563   16.5230 O.3     1  UNL1       -0.3814
     19 H          63.3164   91.0389   16.6678 H       1  UNL1        0.2105
     20 H          64.7187   92.6190   17.1353 H       1  UNL1        0.2105
     21 C          68.9313   94.2971   16.1719 C.3     1  UNL1        0.1107
     22 N          68.1038   93.2005   15.5695 N.am    1  UNL1       -0.3026
     23 C          66.9922   93.5353   14.6197 C.2     1  UNL1        0.2240
     24 O          66.7080   94.9666   14.2723 O.2     1  UNL1       -0.2750
     25 H          68.2903   92.2611   15.7975 H       1  UNL1        0.1495
     26 N          61.7858   85.2506   11.3070 N.pl3   1  UNL1       -0.3184
     27 H          60.8050   85.2296   11.3898 H       1  UNL1        0.1482
     28 C          62.4563   84.5611   10.1559 C.3     1  UNL1        0.0703
     29 C          62.2028   85.0260    8.7524 C.3     1  UNL1        0.0179
     30 C          62.5562   85.0095    7.2948 C.3     1  UNL1        0.0017
     31 C          61.4105   85.8476    7.7794 C.3     1  UNL1        0.0017
     32 C          63.3802   83.4067   10.4082 C.3     1  UNL1        0.0179
     33 C          64.7160   82.8836   10.8465 C.3     1  UNL1        0.0017
     34 C          63.6447   81.9302   10.4070 C.3     1  UNL1        0.0017
@<TRIPOS>BOND
     1    21    22    1
     2    22    23   am
     3    23    24    2
     4    11    23    1
     5    11    12    1
     6    13    12    1
     7    13    14    1
     8    14     1    1
     9     1     2   ar
    10     2     3   ar
    11     3     4   ar
    12     4     5   ar
    13     5    26    1
    14    26    28    1
    15    28    29    1
    16    29    30    1
    17    30    31    1
    18    28    32    1
    19    32    33    1
    20    33    34    1
    21     5     6   ar
    22     6     7   ar
    23     7     8    1
    24     7     9   ar
    25     9    10   ar
    26    14    15    1
    27    15    16    1
    28    15    17    1
    29    17    18    1
    30    13    11    1
    31    10     1   ar
    32    17    11    1
    33    10     4   ar
    34    31    29    1
    35    34    32    1
    36    22    25    1
    37    26    27    1
    38    16    19    1
    39    18    20    1
@<TRIPOS>MOLECULE
*****
 34 39 0 0 0
SMALL
GASTEIGER

@<TRIPOS>ATOM
      1 N          64.2900   90.5270   13.4251 N.ar    1  UNL1       -0.2937
      2 C          63.5593   90.9493   12.1850 C.ar    1  UNL1        0.1798
      3 N          64.1696   92.2314   11.7015 N.ar    1  UNL1       -0.2195
      4 C          65.2774   92.6014   12.6427 C.ar    1  UNL1        0.1483
      5 C          66.2280   93.7614   12.6673 C.ar    1  UNL1        0.1518
      6 N          67.2531   93.8681   13.7573 N.ar    1  UNL1       -0.2003
      7 C          67.3275   92.8147   14.8226 C.ar    1  UNL1        0.2264
      8 CL         68.3525   92.9213   15.9125 Cl      1  UNL1       -0.0409
      9 N          66.3768   91.6546   14.7979 N.ar    1  UNL1       -0.1976
     10 C          65.3518   91.5480   13.7079 C.ar    1  UNL1        0.1680
     11 C          63.7548   86.9790   14.9052 C.3     1  UNL1        0.0977
     12 C          64.1653   86.3919   13.5874 C.3     1  UNL1        0.0136
     13 C          64.1339   87.8806   13.7680 C.3     1  UNL1        0.0344
     14 C          64.0083   89.2991   14.2394 C.3     1  UNL1        0.1180
     15 C          63.5516   89.2742   15.6679 C.3     1  UNL1        0.1582
     16 O          63.2964   90.4727   16.5330 O.3     1  UNL1       -0.3800
     17 C          63.3949   87.8402   16.0795 C.3     1  UNL1        0.1471
     18 O          62.9555   87.3531   17.4284 O.3     1  UNL1       -0.3814
     19 H          63.0103   90.1813   17.4129 H       1  UNL1        0.2105
     20 H          62.7843   88.1129   18.0065 H       1  UNL1        0.2105
     21 C          62.2680   83.3906   15.7196 C.3     1  UNL1        0.1107
     22 N          62.5106   84.7018   15.0325 N.am    1  UNL1       -0.3026
     23 C          63.5122   85.6678   15.5924 C.2     1  UNL1        0.2240
     24 O          64.2714   85.3228   16.8392 O.2     1  UNL1       -0.2750
     25 H          62.0123   84.9283   14.2141 H       1  UNL1        0.1495
     26 N          66.1536   94.8149   11.6021 N.pl3   1  UNL1       -0.3184
     27 H          65.6537   95.6469   11.7666 H       1  UNL1        0.1482
     28 C          66.8409   94.6006   10.2861 C.3     1  UNL1        0.0703
     29 C          67.5998   93.3315   10.0342 C.3     1  UNL1        0.0179
     30 C          68.1077   92.0045   10.5149 C.3     1  UNL1        0.0017
     31 C          68.4064   92.4604    9.1174 C.3     1  UNL1        0.0017
     32 C          66.7691   95.6553    9.2220 C.3     1  UNL1        0.0179
     33 C          65.9962   96.7130    8.4914 C.3     1  UNL1        0.0017
     34 C          67.4178   96.4245    8.1095 C.3     1  UNL1        0.0017
@<TRIPOS>BOND
     1    21    22    1
     2    22    23   am
     3    23    24    2
     4    11    23    1
     5    11    12    1
     6    13    12    1
     7    13    14    1
     8    14     1    1
     9     1     2   ar
    10     2     3   ar
    11     3     4   ar
    12     4     5   ar
    13     5    26    1
    14    26    28    1
    15    28    29    1
    16    29    30    1
    17    30    31    1
    18    28    32    1
    19    32    33    1
    20    33    34    1
    21     5     6   ar
    22     6     7   ar
    23     7     8    1
    24     7     9   ar
    25     9    10   ar
    26    14    15    1
    27    15    16    1
    28    15    17    1
    29    17    18    1
    30    13    11    1
    31    10     1   ar
    32    17    11    1
    33    10     4   ar
    34    31    29    1
    35    34    32    1
    36    22    25    1
    37    26    27    1
    38    16    19    1
    39    18    20    1
@<TRIPOS>MOLECULE
*****
 34 39 0 0 0
SMALL
GASTEIGER

@<TRIPOS>ATOM
      1 N          64.3015   90.5043   13.4700 N.ar    1  UNL1       -0.2937
      2 C          63.5563   90.9561   12.2491 C.ar    1  UNL1        0.1798
      3 N          64.1757   92.2376   11.7759 N.ar    1  UNL1       -0.2195
      4 C          65.3037   92.5778   12.7043 C.ar    1  UNL1        0.1483
      5 C          66.2700   93.7247   12.7315 C.ar    1  UNL1        0.1518
      6 N          67.3142   93.8004   13.8058 N.ar    1  UNL1       -0.2003
      7 C          67.3919   92.7291   14.8529 C.ar    1  UNL1        0.2264
      8 CL         68.4360   92.8047   15.9271 Cl      1  UNL1       -0.0409
      9 N          66.4255   91.5821   14.8256 N.ar    1  UNL1       -0.1976
     10 C          65.3814   91.5066   13.7513 C.ar    1  UNL1        0.1680
     11 C          63.7559   86.9400   14.9064 C.3     1  UNL1        0.0977
     12 C          64.1622   86.3680   13.5806 C.3     1  UNL1        0.0136
     13 C          64.1364   87.8544   13.7799 C.3     1  UNL1        0.0344
     14 C          64.0167   89.2673   14.2693 C.3     1  UNL1        0.1180
     15 C          63.5623   89.2261   15.6982 C.3     1  UNL1        0.1582
     16 O          63.3128   90.4145   16.5787 O.3     1  UNL1       -0.3800
     17 C          63.4011   87.7876   16.0920 C.3     1  UNL1        0.1471
     18 O          62.9622   87.2852   17.4354 O.3     1  UNL1       -0.3814
     19 H          63.0271   90.1132   17.4553 H       1  UNL1        0.2105
     20 H          62.7946   88.0383   18.0233 H       1  UNL1        0.2105
     21 C          62.2426   83.3558   15.6902 C.3     1  UNL1        0.1107
     22 N          62.4887   84.6747   15.0192 N.am    1  UNL1       -0.3026
     23 C          63.5098   85.6211   15.5775 C.2     1  UNL1        0.2240
     24 O          64.2848   85.2488   16.8066 O.2     1  UNL1       -0.2750
     25 H          61.9801   84.9191   14.2125 H       1  UNL1        0.1495
     26 N          66.1923   94.7960   11.6845 N.pl3   1  UNL1       -0.3184
     27 H          65.7180   95.6373   11.8753 H       1  UNL1        0.1482
     28 C          66.8373   94.5854   10.3466 C.3     1  UNL1        0.0703
     29 C          66.7293   95.6419    9.2873 C.3     1  UNL1        0.0179
     30 C          67.3003   96.3469    8.0928 C.3     1  UNL1        0.0017
     31 C          65.9711   96.7667    8.6470 C.3     1  UNL1        0.0017
     32 C          67.5904   93.3184   10.0682 C.3     1  UNL1        0.0179
     33 C          68.0399   91.9533   10.4977 C.3     1  UNL1        0.0017
     34 C          68.4451   92.4889    9.1565 C.3     1  UNL1        0.0017
@<TRIPOS>BOND
     1    21    22    1
     2    22    23   am
     3    23    24    2
     4    11    23    1
     5    11    12    1
     6    13    12    1
     7    13    14    1
     8    14     1    1
     9     1     2   ar
    10     2     3   ar
    11     3     4   ar
    12     4     5   ar
    13     5    26    1
    14    26    28    1
    15    28    29    1
    16    29    30    1
    17    30    31    1
    18    28    32    1
    19    32    33    1
    20    33    34    1
    21     5     6   ar
    22     6     7   ar
    23     7     8    1
    24     7     9   ar
    25     9    10   ar
    26    14    15    1
    27    15    16    1
    28    15    17    1
    29    17    18    1
    30    13    11    1
    31    10     1   ar
    32    17    11    1
    33    10     4   ar
    34    31    29    1
    35    34    32    1
    36    22    25    1
    37    26    27    1
    38    16    19    1
    39    18    20    1
