@<TRIPOS>MOLECULE
*****
 40 44 0 0 0
SMALL
GASTEIGER

@<TRIPOS>ATOM
      1 C          61.8037   88.4037   10.2287 C.3     1  UNL1        0.0312
      2 C          62.4397   87.5263   11.2659 C.2     1  UNL1        0.0136
      3 C          62.3511   86.0340   11.1425 C.2     1  UNL1        0.0107
      4 C          62.9870   85.1567   12.1796 C.2     1  UNL1        0.0510
      5 C          63.7116   85.7716   13.3402 C.2     1  UNL1        0.0613
      6 C          63.8002   87.2638   13.4636 C.2     1  UNL1        0.2246
      7 N          64.4433   88.1497   14.4891 N.2     1  UNL1       -0.0378
      8 C          64.2047   89.5746   14.0857 C.2     1  UNL1        0.3605
      9 N          63.4142   89.5694   12.8109 N.2     1  UNL1       -0.0547
     10 C          63.1642   88.1412   12.4264 C.3     1  UNL1        0.2976
     11 C          64.6742   90.7912   14.8270 C.3     1  UNL1        0.2246
     12 C          65.7018   91.6942   14.2118 C.2     1  UNL1        0.0436
     13 C          66.1712   92.9108   14.9532 C.2     1  UNL1        0.0288
     14 C          65.6131   93.2244   16.3096 C.2     1  UNL1        0.0896
     15 N          64.5854   92.3214   16.9248 N.am    1  UNL1       -0.1770
     16 C          64.1160   91.1048   16.1835 C.2     1  UNL1        0.2627
     17 O          63.0883   90.2018   16.7987 O.2     1  UNL1       -0.2719
     18 N          66.2600   91.3807   12.8553 N.pl3   1  UNL1       -0.3329
     19 H          65.8226   90.7064   12.2869 H       1  UNL1        0.1466
     20 C          67.4847   92.0946   12.3649 C.3     1  UNL1        0.1211
     21 C          67.5328   92.6246   10.9625 C.3     1  UNL1        0.1522
     22 O          68.0069   91.7447    9.8440 O.3     1  UNL1       -0.3783
     23 H          68.2421   90.8722   10.1965 H       1  UNL1        0.2109
     24 C          67.1068   94.0345   10.6787 C.ar    1  UNL1        0.0067
     25 C          66.2374   94.7668   11.6573 C.ar    1  UNL1       -0.0018
     26 C          65.8113   96.1768   11.3734 C.ar    1  UNL1        0.0006
     27 C          66.2547   96.8544   10.1108 C.ar    1  UNL1        0.0114
     28 C          67.1241   96.1221    9.1321 C.ar    1  UNL1        0.0574
     29 CL         67.5674   96.7998    7.8695 Cl      1  UNL1       -0.0823
     30 C          67.5501   94.7122    9.4160 C.ar    1  UNL1        0.0095
     31 N          62.8984   83.6643   12.0562 N.pl3   1  UNL1       -0.3046
     32 C          62.4495   82.8403   13.2265 C.3     1  UNL1        0.1081
     33 C          62.3609   81.3481   13.1031 C.3     1  UNL1        0.0938
     34 N          62.7212   80.6798   11.8095 N.3     1  UNL1       -0.2697
     35 C          63.1701   81.5037   10.6392 C.3     1  UNL1        0.0938
     36 C          63.2587   82.9960   10.7626 C.3     1  UNL1        0.1081
     37 C          62.6327   79.1875   11.6860 C.3     1  UNL1        0.0751
     38 C          62.8322   78.5322   10.3515 C.3     1  UNL1        0.0554
     39 C          63.1270   77.0635   10.2737 C.3     1  UNL1        0.1947
     40 F          64.4124   76.5878    9.6642 F       1  UNL1       -0.2343
@<TRIPOS>BOND
     1     1     2    1
     2     2     3    2
     3     3     4    1
     4     4    31    1
     5    31    32    1
     6    32    33    1
     7    33    34    1
     8    34    37    1
     9    37    38    1
    10    38    39    1
    11    39    40    1
    12    34    35    1
    13    35    36    1
    14     4     5    2
    15     5     6    1
    16     6     7    2
    17     7     8    1
    18     8    11    1
    19    11    12    1
    20    12    18    1
    21    18    20    1
    22    20    21    1
    23    21    22    1
    24    21    24    1
    25    24    25   ar
    26    25    26   ar
    27    26    27   ar
    28    27    28   ar
    29    28    29    1
    30    28    30   ar
    31    12    13    2
    32    13    14    1
    33    14    15    2
    34    15    16    1
    35    16    17    2
    36     8     9    2
    37     9    10    1
    38    10     2    1
    39    36    31    1
    40    10     6    1
    41    16    11    1
    42    30    24   ar
    43    18    19    1
    44    22    23    1
@<TRIPOS>MOLECULE
*****
 40 44 0 0 0
SMALL
GASTEIGER

@<TRIPOS>ATOM
      1 C          63.0173   88.4561   17.7935 C.3     1  UNL1        0.0312
      2 C          63.3594   87.8634   16.4587 C.2     1  UNL1        0.0136
      3 C          63.1360   86.4015   16.2078 C.2     1  UNL1        0.0107
      4 C          63.4780   85.8088   14.8731 C.2     1  UNL1        0.0510
      5 C          64.0434   86.6779   13.7890 C.2     1  UNL1        0.0613
      6 C          64.2668   88.1398   14.0399 C.2     1  UNL1        0.2246
      7 N          64.8056   89.2366   13.1700 N.2     1  UNL1       -0.0378
      8 C          64.7966   90.5072   13.9672 C.2     1  UNL1        0.3605
      9 N          64.2522   90.1957   15.3298 N.2     1  UNL1       -0.0547
     10 C          63.9248   88.7326   15.3747 C.3     1  UNL1        0.2976
     11 C          65.2520   91.8530   13.4863 C.3     1  UNL1        0.2246
     12 C          65.0383   92.2500   12.0556 C.2     1  UNL1        0.0436
     13 C          65.4938   93.5959   11.5748 C.2     1  UNL1        0.0288
     14 C          66.1629   94.5448   12.5244 C.2     1  UNL1        0.0896
     15 N          66.3765   94.1478   13.9551 N.am    1  UNL1       -0.1770
     16 C          65.9211   92.8019   14.4360 C.2     1  UNL1        0.2627
     17 O          66.1348   92.4049   15.8666 O.2     1  UNL1       -0.2719
     18 N          64.3693   91.3012   11.1059 N.pl3   1  UNL1       -0.3329
     19 H          64.9096   90.6674   10.5810 H       1  UNL1        0.1466
     20 C          62.8769   91.3181   10.9557 C.3     1  UNL1        0.1211
     21 C          62.0594   90.1659   11.4597 C.3     1  UNL1        0.1522
     22 O          61.6605   90.1044   12.9044 O.3     1  UNL1       -0.3783
     23 H          62.0096   90.8807   13.3696 H       1  UNL1        0.2109
     24 C          61.6407   89.0751   10.5190 C.ar    1  UNL1        0.0067
     25 C          62.2554   87.7114   10.6307 C.ar    1  UNL1       -0.0018
     26 C          61.8367   86.6207    9.6899 C.ar    1  UNL1        0.0006
     27 C          60.8033   86.8936    8.6375 C.ar    1  UNL1        0.0114
     28 C          60.1886   88.2572    8.5259 C.ar    1  UNL1        0.0574
     29 CL         59.1552   88.5301    7.4735 Cl      1  UNL1       -0.0823
     30 C          60.6073   89.3480    9.4666 C.ar    1  UNL1        0.0095
     31 N          63.2546   84.3468   14.6222 N.pl3   1  UNL1       -0.3046
     32 C          61.9027   83.7427   14.8621 C.3     1  UNL1        0.1081
     33 C          61.6793   82.2808   14.6112 C.3     1  UNL1        0.0938
     34 N          62.8078   81.4230   14.1204 N.3     1  UNL1       -0.2697
     35 C          64.1596   82.0272   13.8805 C.3     1  UNL1        0.0938
     36 C          64.3830   83.4891   14.1314 C.3     1  UNL1        0.1081
     37 C          62.5845   79.9612   13.8695 C.3     1  UNL1        0.0751
     38 C          62.4844   79.4482   12.4635 C.3     1  UNL1        0.0554
     39 C          62.8333   80.3436   11.3118 C.3     1  UNL1        0.1947
     40 F          62.8473   79.7976    9.9147 F       1  UNL1       -0.2343
@<TRIPOS>BOND
     1     1     2    1
     2     2     3    2
     3     3     4    1
     4     4    31    1
     5    31    32    1
     6    32    33    1
     7    33    34    1
     8    34    37    1
     9    37    38    1
    10    38    39    1
    11    39    40    1
    12    34    35    1
    13    35    36    1
    14     4     5    2
    15     5     6    1
    16     6     7    2
    17     7     8    1
    18     8    11    1
    19    11    12    1
    20    12    18    1
    21    18    20    1
    22    20    21    1
    23    21    22    1
    24    21    24    1
    25    24    25   ar
    26    25    26   ar
    27    26    27   ar
    28    27    28   ar
    29    28    29    1
    30    28    30   ar
    31    12    13    2
    32    13    14    1
    33    14    15    2
    34    15    16    1
    35    16    17    2
    36     8     9    2
    37     9    10    1
    38    10     2    1
    39    36    31    1
    40    10     6    1
    41    16    11    1
    42    30    24   ar
    43    18    19    1
    44    22    23    1
@<TRIPOS>MOLECULE
*****
 40 44 0 0 0
SMALL
GASTEIGER

@<TRIPOS>ATOM
      1 C          63.5304   84.6480   14.0658 C.3     1  UNL1        0.0312
      2 C          63.2638   85.6440   12.9764 C.2     1  UNL1        0.0136
      3 C          62.8225   85.1740   11.6220 C.2     1  UNL1        0.0107
      4 C          62.5559   86.1700   10.5327 C.2     1  UNL1        0.0510
      5 C          62.7305   87.6361   10.7976 C.2     1  UNL1        0.0613
      6 C          63.1718   88.1061   12.1520 C.2     1  UNL1        0.2246
      7 N          63.4276   89.4770   12.7044 N.2     1  UNL1       -0.0378
      8 C          63.8523   89.3282   14.1353 C.2     1  UNL1        0.3605
      9 N          63.8590   87.8654   14.4672 N.2     1  UNL1       -0.0547
     10 C          63.4384   87.1101   13.2414 C.3     1  UNL1        0.2976
     11 C          64.2079   90.4460   15.0703 C.3     1  UNL1        0.2246
     12 C          65.3506   91.3614   14.7445 C.2     1  UNL1        0.0436
     13 C          65.7062   92.4792   15.6795 C.2     1  UNL1        0.0288
     14 C          64.9191   92.6815   16.9402 C.2     1  UNL1        0.0896
     15 N          63.7763   91.7661   17.2660 N.am    1  UNL1       -0.1770
     16 C          63.4208   90.6483   16.3310 C.2     1  UNL1        0.2627
     17 O          62.2781   89.7329   16.6568 O.2     1  UNL1       -0.2719
     18 N          66.1378   91.1591   13.4838 N.pl3   1  UNL1       -0.3329
     19 H          65.9939   90.3527   12.9377 H       1  UNL1        0.1466
     20 C          67.1442   92.1855   13.0551 C.3     1  UNL1        0.1211
     21 C          66.7036   93.3864   12.2717 C.3     1  UNL1        0.1522
     22 O          65.7859   94.3946   12.8974 O.3     1  UNL1       -0.3783
     23 H          65.5753   94.1214   13.8040 H       1  UNL1        0.2109
     24 C          67.1806   93.5791   10.8627 C.ar    1  UNL1        0.0067
     25 C          67.8992   92.4685   10.1557 C.ar    1  UNL1       -0.0018
     26 C          68.3763   92.6612    8.7467 C.ar    1  UNL1        0.0006
     27 C          68.1346   93.9646    8.0447 C.ar    1  UNL1        0.0114
     28 C          67.4160   95.0752    8.7518 C.ar    1  UNL1        0.0574
     29 CL         67.1744   96.3786    8.0498 Cl      1  UNL1       -0.0823
     30 C          66.9390   94.8825   10.1608 C.ar    1  UNL1        0.0095
     31 N          62.1146   85.7000    9.1782 N.pl3   1  UNL1       -0.3046
     32 C          63.0551   84.9132    8.3142 C.3     1  UNL1        0.1081
     33 C          62.6138   84.4431    6.9598 C.3     1  UNL1        0.0938
     34 N          61.2321   84.7599    6.4694 N.3     1  UNL1       -0.2697
     35 C          60.2916   85.5467    7.3334 C.3     1  UNL1        0.0938
     36 C          60.7329   86.0167    8.6878 C.3     1  UNL1        0.1081
     37 C          60.7908   84.2900    5.1151 C.3     1  UNL1        0.0751
     38 C          61.7568   84.2960    3.9675 C.3     1  UNL1        0.0554
     39 C          61.2469   84.2507    2.5576 C.3     1  UNL1        0.1947
     40 F          61.9817   84.9779    1.4707 F       1  UNL1       -0.2343
@<TRIPOS>BOND
     1     1     2    1
     2     2     3    2
     3     3     4    1
     4     4    31    1
     5    31    32    1
     6    32    33    1
     7    33    34    1
     8    34    37    1
     9    37    38    1
    10    38    39    1
    11    39    40    1
    12    34    35    1
    13    35    36    1
    14     4     5    2
    15     5     6    1
    16     6     7    2
    17     7     8    1
    18     8    11    1
    19    11    12    1
    20    12    18    1
    21    18    20    1
    22    20    21    1
    23    21    22    1
    24    21    24    1
    25    24    25   ar
    26    25    26   ar
    27    26    27   ar
    28    27    28   ar
    29    28    29    1
    30    28    30   ar
    31    12    13    2
    32    13    14    1
    33    14    15    2
    34    15    16    1
    35    16    17    2
    36     8     9    2
    37     9    10    1
    38    10     2    1
    39    36    31    1
    40    10     6    1
    41    16    11    1
    42    30    24   ar
    43    18    19    1
    44    22    23    1
@<TRIPOS>MOLECULE
*****
 40 44 0 0 0
SMALL
GASTEIGER

@<TRIPOS>ATOM
      1 C          63.7616   84.4975   13.8358 C.3     1  UNL1        0.0312
      2 C          63.3837   85.5146   12.8001 C.2     1  UNL1        0.0136
      3 C          62.9236   85.0687   11.4439 C.2     1  UNL1        0.0107
      4 C          62.5457   86.0857   10.4082 C.2     1  UNL1        0.0510
      5 C          62.6279   87.5488   10.7287 C.2     1  UNL1        0.0613
      6 C          63.0880   87.9947   12.0849 C.2     1  UNL1        0.2246
      7 N          63.2690   89.3572   12.6856 N.2     1  UNL1       -0.0378
      8 C          63.7587   89.1822   14.0925 C.2     1  UNL1        0.3605
      9 N          63.8804   87.7115   14.3614 N.2     1  UNL1       -0.0547
     10 C          63.4659   86.9776   13.1206 C.3     1  UNL1        0.2976
     11 C          64.0718   90.2844   15.0606 C.3     1  UNL1        0.2246
     12 C          65.0769   91.3374   14.6988 C.2     1  UNL1        0.0436
     13 C          65.3899   92.4396   15.6670 C.2     1  UNL1        0.0288
     14 C          64.6980   92.4886   16.9969 C.2     1  UNL1        0.0896
     15 N          63.6930   91.4356   17.3588 N.am    1  UNL1       -0.1770
     16 C          63.3799   90.3334   16.3906 C.2     1  UNL1        0.2627
     17 O          62.3749   89.2804   16.7524 O.2     1  UNL1       -0.2719
     18 N          65.7688   91.2884   13.3688 N.pl3   1  UNL1       -0.3329
     19 H          66.5212   90.6692   13.2279 H       1  UNL1        0.1466
     20 C          65.3146   92.1828   12.2536 C.3     1  UNL1        0.1211
     21 C          65.9871   93.5051   12.0314 C.3     1  UNL1        0.1522
     22 O          65.9574   94.5515   13.1057 O.3     1  UNL1       -0.3783
     23 H          65.4671   94.2145   13.8719 H       1  UNL1        0.2109
     24 C          66.6892   93.7809   10.7349 C.ar    1  UNL1        0.0067
     25 C          66.5115   95.1048   10.0526 C.ar    1  UNL1       -0.0018
     26 C          67.2136   95.3807    8.7561 C.ar    1  UNL1        0.0006
     27 C          68.0934   94.3326    8.1418 C.ar    1  UNL1        0.0114
     28 C          68.2711   93.0087    8.8242 C.ar    1  UNL1        0.0574
     29 CL         69.1510   91.9605    8.2099 Cl      1  UNL1       -0.0823
     30 C          67.5690   92.7328   10.1207 C.ar    1  UNL1        0.0095
     31 N          62.0855   85.6397    9.0519 N.pl3   1  UNL1       -0.3046
     32 C          60.6801   85.9181    8.6076 C.3     1  UNL1        0.1081
     33 C          60.2200   85.4722    7.2514 C.3     1  UNL1        0.0938
     34 N          61.1653   84.7479    6.3394 N.3     1  UNL1       -0.2697
     35 C          62.5707   84.4695    6.7836 C.3     1  UNL1        0.0938
     36 C          63.0308   84.9154    8.1399 C.3     1  UNL1        0.1081
     37 C          60.7053   84.3019    4.9831 C.3     1  UNL1        0.0751
     38 C          61.6983   84.1368    3.8711 C.3     1  UNL1        0.0554
     39 C          61.2359   84.1510    2.4442 C.3     1  UNL1        0.1947
     40 F          61.9567   84.9894    1.4305 F       1  UNL1       -0.2343
@<TRIPOS>BOND
     1     1     2    1
     2     2     3    2
     3     3     4    1
     4     4    31    1
     5    31    32    1
     6    32    33    1
     7    33    34    1
     8    34    37    1
     9    37    38    1
    10    38    39    1
    11    39    40    1
    12    34    35    1
    13    35    36    1
    14     4     5    2
    15     5     6    1
    16     6     7    2
    17     7     8    1
    18     8    11    1
    19    11    12    1
    20    12    18    1
    21    18    20    1
    22    20    21    1
    23    21    22    1
    24    21    24    1
    25    24    25   ar
    26    25    26   ar
    27    26    27   ar
    28    27    28   ar
    29    28    29    1
    30    28    30   ar
    31    12    13    2
    32    13    14    1
    33    14    15    2
    34    15    16    1
    35    16    17    2
    36     8     9    2
    37     9    10    1
    38    10     2    1
    39    36    31    1
    40    10     6    1
    41    16    11    1
    42    30    24   ar
    43    18    19    1
    44    22    23    1
@<TRIPOS>MOLECULE
*****
 40 44 0 0 0
SMALL
GASTEIGER

@<TRIPOS>ATOM
      1 C          58.6815   86.7239    8.5058 C.3     1  UNL1        0.0312
      2 C          59.5343   87.9342    8.2649 C.2     1  UNL1        0.0136
      3 C          59.3172   88.7730    7.0405 C.2     1  UNL1        0.0107
      4 C          60.1698   89.9832    6.7996 C.2     1  UNL1        0.0510
      5 C          61.2397   90.3549    7.7832 C.2     1  UNL1        0.0613
      6 C          61.4567   89.5162    9.0077 C.2     1  UNL1        0.2246
      7 N          62.4268   89.6337   10.1457 N.2     1  UNL1       -0.0378
      8 C          62.1737   88.4960   11.0899 C.2     1  UNL1        0.3605
      9 N          61.0471   87.6753   10.5355 N.2     1  UNL1       -0.0547
     10 C          60.6040   88.3058    9.2486 C.3     1  UNL1        0.2976
     11 C          62.9166   88.2263   12.3648 C.3     1  UNL1        0.2246
     12 C          63.4471   89.3684   13.1797 C.2     1  UNL1        0.0436
     13 C          64.1901   89.0986   14.4546 C.2     1  UNL1        0.0288
     14 C          64.4025   87.6868   14.9145 C.2     1  UNL1        0.0896
     15 N          63.8720   86.5446   14.0996 N.am    1  UNL1       -0.1770
     16 C          63.1291   86.8145   12.8247 C.2     1  UNL1        0.2627
     17 O          62.5986   85.6723   12.0098 O.2     1  UNL1       -0.2719
     18 N          63.2347   90.7803   12.7198 N.pl3   1  UNL1       -0.3329
     19 H          62.4599   91.2928   13.0458 H       1  UNL1        0.1466
     20 C          64.2027   91.4112   11.7634 C.3     1  UNL1        0.1211
     21 C          65.2187   92.3946   12.2642 C.3     1  UNL1        0.1522
     22 O          65.3548   92.6484   13.7363 O.3     1  UNL1       -0.3783
     23 H          64.7167   92.1001   14.2192 H       1  UNL1        0.2109
     24 C          66.0986   93.1241   11.2928 C.ar    1  UNL1        0.0067
     25 C          66.0204   94.6183   11.1860 C.ar    1  UNL1       -0.0018
     26 C          66.9003   95.3478   10.2147 C.ar    1  UNL1        0.0006
     27 C          67.8585   94.5832    9.3501 C.ar    1  UNL1        0.0114
     28 C          67.9366   93.0891    9.4569 C.ar    1  UNL1        0.0574
     29 CL         68.8947   92.3246    8.5924 Cl      1  UNL1       -0.0823
     30 C          67.0567   92.3596   10.4283 C.ar    1  UNL1        0.0095
     31 N          59.9528   90.8220    5.5750 N.pl3   1  UNL1       -0.3046
     32 C          58.5665   91.2525    5.1969 C.3     1  UNL1        0.1081
     33 C          58.3494   92.0913    3.9724 C.3     1  UNL1        0.0938
     34 N          59.5186   92.4995    3.1260 N.3     1  UNL1       -0.2697
     35 C          60.9048   92.0690    3.5041 C.3     1  UNL1        0.0938
     36 C          61.1219   91.2302    4.7286 C.3     1  UNL1        0.1081
     37 C          59.3016   93.3382    1.9015 C.3     1  UNL1        0.0751
     38 C          59.2812   92.6956    0.5463 C.3     1  UNL1        0.0554
     39 C          60.5578   92.2078   -0.0719 C.3     1  UNL1        0.1947
     40 F          61.8723   92.7760    0.3746 F       1  UNL1       -0.2343
@<TRIPOS>BOND
     1     1     2    1
     2     2     3    2
     3     3     4    1
     4     4    31    1
     5    31    32    1
     6    32    33    1
     7    33    34    1
     8    34    37    1
     9    37    38    1
    10    38    39    1
    11    39    40    1
    12    34    35    1
    13    35    36    1
    14     4     5    2
    15     5     6    1
    16     6     7    2
    17     7     8    1
    18     8    11    1
    19    11    12    1
    20    12    18    1
    21    18    20    1
    22    20    21    1
    23    21    22    1
    24    21    24    1
    25    24    25   ar
    26    25    26   ar
    27    26    27   ar
    28    27    28   ar
    29    28    29    1
    30    28    30   ar
    31    12    13    2
    32    13    14    1
    33    14    15    2
    34    15    16    1
    35    16    17    2
    36     8     9    2
    37     9    10    1
    38    10     2    1
    39    36    31    1
    40    10     6    1
    41    16    11    1
    42    30    24   ar
    43    18    19    1
    44    22    23    1
@<TRIPOS>MOLECULE
*****
 40 44 0 0 0
SMALL
GASTEIGER

@<TRIPOS>ATOM
      1 C          58.2757   86.1794    8.3099 C.3     1  UNL1        0.0312
      2 C          59.2396   87.3217    8.1831 C.2     1  UNL1        0.0136
      3 C          59.0695   88.3280    7.0839 C.2     1  UNL1        0.0107
      4 C          60.0333   89.4703    6.9571 C.2     1  UNL1        0.0510
      5 C          61.1673   89.6063    7.9296 C.2     1  UNL1        0.0613
      6 C          61.3374   88.6000    9.0288 C.2     1  UNL1        0.2246
      7 N          62.3513   88.4751   10.1272 N.2     1  UNL1       -0.0378
      8 C          62.0140   87.2556   10.9328 C.2     1  UNL1        0.3605
      9 N          60.7917   86.6268   10.3323 N.2     1  UNL1       -0.0547
     10 C          60.3735   87.4577    9.1556 C.3     1  UNL1        0.2976
     11 C          62.7669   86.7530   12.1289 C.3     1  UNL1        0.2246
     12 C          63.4190   87.7248   13.0672 C.2     1  UNL1        0.0436
     13 C          64.1719   87.2221   14.2633 C.2     1  UNL1        0.0288
     14 C          64.2726   85.7479   14.5211 C.2     1  UNL1        0.0896
     15 N          63.6205   84.7762   13.5827 N.am    1  UNL1       -0.1770
     16 C          62.8676   85.2788   12.3866 C.2     1  UNL1        0.2627
     17 O          62.2155   84.3071   11.4483 O.2     1  UNL1       -0.2719
     18 N          63.3184   89.1990   12.8095 N.pl3   1  UNL1       -0.3329
     19 H          63.5487   89.5606   11.9233 H       1  UNL1        0.1466
     20 C          62.8667   90.1223   13.9020 C.3     1  UNL1        0.1211
     21 C          63.8782   90.8838   14.7063 C.3     1  UNL1        0.1522
     22 O          63.6433   91.1301   16.1672 O.3     1  UNL1       -0.3783
     23 H          62.7979   90.7338   16.4301 H       1  UNL1        0.2109
     24 C          65.1246   91.3990   14.0497 C.ar    1  UNL1        0.0067
     25 C          66.4379   91.3238   14.7703 C.ar    1  UNL1       -0.0018
     26 C          67.6843   91.8390   14.1137 C.ar    1  UNL1        0.0006
     27 C          67.6173   92.4295   12.7364 C.ar    1  UNL1        0.0114
     28 C          66.3039   92.5047   12.0158 C.ar    1  UNL1        0.0574
     29 CL         66.2369   93.0951   10.6386 Cl      1  UNL1       -0.0823
     30 C          65.0576   91.9895   12.6724 C.ar    1  UNL1        0.0095
     31 N          59.8632   90.4767    5.8578 N.pl3   1  UNL1       -0.3046
     32 C          61.0561   90.9439    5.0776 C.3     1  UNL1        0.1081
     33 C          60.8861   91.9503    3.9783 C.3     1  UNL1        0.0938
     34 N          59.5231   92.4894    3.6593 N.3     1  UNL1       -0.2697
     35 C          58.3303   92.0221    4.4395 C.3     1  UNL1        0.0938
     36 C          58.5003   91.0158    5.5388 C.3     1  UNL1        0.1081
     37 C          59.3530   93.4957    2.5601 C.3     1  UNL1        0.0751
     38 C          59.4407   93.0627    1.1266 C.3     1  UNL1        0.0554
     39 C          60.7771   92.9683    0.4520 C.3     1  UNL1        0.1947
     40 F          61.6007   91.7223    0.5900 F       1  UNL1       -0.2343
@<TRIPOS>BOND
     1     1     2    1
     2     2     3    2
     3     3     4    1
     4     4    31    1
     5    31    32    1
     6    32    33    1
     7    33    34    1
     8    34    37    1
     9    37    38    1
    10    38    39    1
    11    39    40    1
    12    34    35    1
    13    35    36    1
    14     4     5    2
    15     5     6    1
    16     6     7    2
    17     7     8    1
    18     8    11    1
    19    11    12    1
    20    12    18    1
    21    18    20    1
    22    20    21    1
    23    21    22    1
    24    21    24    1
    25    24    25   ar
    26    25    26   ar
    27    26    27   ar
    28    27    28   ar
    29    28    29    1
    30    28    30   ar
    31    12    13    2
    32    13    14    1
    33    14    15    2
    34    15    16    1
    35    16    17    2
    36     8     9    2
    37     9    10    1
    38    10     2    1
    39    36    31    1
    40    10     6    1
    41    16    11    1
    42    30    24   ar
    43    18    19    1
    44    22    23    1
