@<TRIPOS>MOLECULE
*****
 44 48 0 0 0
SMALL
GASTEIGER

@<TRIPOS>ATOM
      1 C          64.5056   86.7172   14.0341 C.3     1  UNL1        0.1245
      2 N          64.0661   87.3184   15.3362 N.am    1  UNL1       -0.2735
      3 C          63.7757   88.7874   15.4238 C.2     1  UNL1        0.2492
      4 O          63.3361   89.3886   16.7259 O.2     1  UNL1       -0.2699
      5 C          63.9248   89.6552   14.2094 C.ar    1  UNL1        0.0567
      6 C          63.1197   89.3659   12.9774 C.ar    1  UNL1        0.0063
      7 C          63.2688   90.2337   11.7631 C.ar    1  UNL1        0.0225
      8 C          64.2232   91.3908   11.7808 C.ar    1  UNL1        0.1202
      9 N          64.5803   92.4133   10.7430 N.ar    1  UNL1       -0.1946
     10 C          65.6061   93.3345   11.3336 C.ar    1  UNL1        0.2924
     11 O          65.8831   92.8814   12.7365 O.2     1  UNL1       -0.4237
     12 C          65.0283   91.6801   13.0129 C.ar    1  UNL1        0.1662
     13 C          64.8792   90.8123   14.2272 C.ar    1  UNL1        0.0437
     14 N          66.2433   94.5037   10.6428 N.pl3   1  UNL1       -0.2636
     15 C          66.1248   95.9417   11.0528 C.3     1  UNL1        0.0951
     16 C          66.9191   96.7668   10.0840 C.3     1  UNL1        0.0233
     17 C          67.5284   95.8387    9.0754 C.3     1  UNL1        0.0233
     18 C          67.1107   94.4399    9.4208 C.3     1  UNL1        0.0951
     19 C          63.9169   86.4505   16.5506 C.3     1  UNL1        0.0937
     20 C          62.6315   86.8773   18.7676 C.3     1  UNL1        0.0018
     21 C          62.6334   86.4608   17.3267 C.3     1  UNL1        0.0199
     22 C          61.3516   86.0546   16.6617 C.3     1  UNL1        0.0018
     23 C          64.1618   85.2931   13.7116 C.3     1  UNL1        0.1484
     24 O          65.2098   84.2255   13.8199 O.3     1  UNL1       -0.3810
     25 H          66.0466   84.6220   14.1085 H       1  UNL1        0.2105
     26 C          62.7699   84.9368   13.2806 C.3     1  UNL1        0.1075
     27 N          62.0873   85.7383   12.2120 N.am    1  UNL1       -0.2695
     28 C          62.4767   85.5573   10.7748 C.2     1  UNL1        0.4020
     29 O          63.5487   84.5748   10.4062 O.2     1  UNL1       -0.2264
     30 H          61.3838   86.3831   12.4539 H       1  UNL1        0.1528
     31 O          61.7943   86.3587    9.7062 O.3     1  UNL1       -0.4291
     32 C          60.3871   86.8364    9.9104 C.3     1  UNL1        0.2447
     33 C          60.1312   88.2413   10.3696 C.ar    1  UNL1        0.0714
     34 C          60.3386   89.4857    9.5582 C.ar    1  UNL1        0.1053
     35 N          59.9586   90.6619   10.4079 N.ar    1  UNL1       -0.2350
     36 C          59.5163   90.1444   11.7446 C.ar    1  UNL1        0.1343
     37 S          59.6230   88.6484   11.7209 S.2     1  UNL1       -0.0652
     38 C          62.0605   83.7792   13.9183 C.3     1  UNL1        0.0485
     39 C          62.2479   82.3936   13.3752 C.ar    1  UNL1       -0.0204
     40 C          61.8618   81.2046   14.2042 C.ar    1  UNL1       -0.0042
     41 C          62.0492   79.8189   13.6611 C.ar    1  UNL1       -0.0003
     42 C          62.6226   79.6223   12.2891 C.ar    1  UNL1       -0.0000
     43 C          63.0087   80.8113   11.4601 C.ar    1  UNL1       -0.0003
     44 C          62.8213   82.1969   12.0032 C.ar    1  UNL1       -0.0042
@<TRIPOS>BOND
     1    20    21    1
     2    21    22    1
     3    21    19    1
     4    19     2    1
     5     2     1    1
     6     1    23    1
     7    23    24    1
     8    23    26    1
     9    26    38    1
    10    38    39    1
    11    39    40   ar
    12    40    41   ar
    13    41    42   ar
    14    42    43   ar
    15    43    44   ar
    16    26    27    1
    17    27    28   am
    18    28    29    2
    19    28    31    1
    20    31    32    1
    21    32    33    1
    22    33    34   ar
    23    34    35   ar
    24    35    36   ar
    25    36    37   ar
    26     2     3   am
    27     3     4    2
    28     3     5    1
    29     5     6   ar
    30     6     7   ar
    31     7     8   ar
    32     8     9   ar
    33     9    10   ar
    34    10    14    1
    35    14    15    1
    36    15    16    1
    37    16    17    1
    38    17    18    1
    39    10    11   ar
    40    11    12   ar
    41    12    13   ar
    42    44    39   ar
    43    37    33   ar
    44    13     5   ar
    45    12     8   ar
    46    18    14    1
    47    24    25    1
    48    27    30    1
@<TRIPOS>MOLECULE
*****
 44 48 0 0 0
SMALL
GASTEIGER

@<TRIPOS>ATOM
      1 C          62.5534   87.6191    9.7387 C.3     1  UNL1        0.1245
      2 N          61.1959   88.2282    9.9286 N.am    1  UNL1       -0.2735
      3 C          61.0674   89.6163   10.4823 C.2     1  UNL1        0.2492
      4 O          59.7098   90.2253   10.6722 O.2     1  UNL1       -0.2699
      5 C          62.2965   90.3954   10.8460 C.ar    1  UNL1        0.0567
      6 C          62.9417   91.2944    9.8333 C.ar    1  UNL1        0.0063
      7 C          64.1707   92.0735   10.1971 C.ar    1  UNL1        0.0225
      8 C          64.7546   91.9536   11.5736 C.ar    1  UNL1        0.1202
      9 N          65.9495   92.5934   12.2162 N.ar    1  UNL1       -0.1946
     10 C          66.0428   92.0899   13.6261 C.ar    1  UNL1        0.2924
     11 O          64.9056   91.1389   13.8548 O.2     1  UNL1       -0.4237
     12 C          64.1094   91.0547   12.5863 C.ar    1  UNL1        0.1662
     13 C          62.8804   90.2756   12.2225 C.ar    1  UNL1        0.0437
     14 N          67.0896   92.4705   14.6309 N.pl3   1  UNL1       -0.2636
     15 C          67.9213   91.5203   15.4405 C.3     1  UNL1        0.0951
     16 C          68.8341   92.3308   16.3124 C.3     1  UNL1        0.0233
     17 C          68.5664   93.7816   16.0416 C.3     1  UNL1        0.0233
     18 C          67.4882   93.8679   15.0023 C.3     1  UNL1        0.0951
     19 C          59.9667   87.4490    9.5649 C.3     1  UNL1        0.0937
     20 C          59.0887   88.4497    7.3338 C.3     1  UNL1        0.0018
     21 C          59.5874   87.2763    8.1239 C.3     1  UNL1        0.0199
     22 C          59.7068   85.9301    7.4731 C.3     1  UNL1        0.0018
     23 C          62.6874   86.1433    9.5059 C.3     1  UNL1        0.1484
     24 O          63.1359   85.6327    8.1687 O.3     1  UNL1       -0.3810
     25 H          63.2960   86.3818    7.5737 H       1  UNL1        0.2105
     26 C          62.3730   85.1782   10.6103 C.3     1  UNL1        0.1075
     27 N          62.3940   83.7020   10.3449 N.am    1  UNL1       -0.2695
     28 C          63.6967   82.9585   10.3444 C.2     1  UNL1        0.4020
     29 O          64.9786   83.6912   10.6093 O.2     1  UNL1       -0.2264
     30 H          61.5527   83.2211   10.1711 H       1  UNL1        0.1528
     31 O          63.7177   81.4823   10.0790 O.3     1  UNL1       -0.4291
     32 C          63.0478   80.5391   11.0337 C.3     1  UNL1        0.2447
     33 C          62.8753   80.9255   12.4729 C.ar    1  UNL1        0.0714
     34 C          63.9776   81.1237   13.4708 C.ar    1  UNL1        0.1053
     35 N          63.3538   81.5022   14.7813 N.ar    1  UNL1       -0.2350
     36 C          61.8660   81.5379   14.5934 C.ar    1  UNL1        0.1343
     37 S          61.5703   81.1815   13.1667 S.2     1  UNL1       -0.0652
     38 C          62.0377   85.6893   11.9801 C.3     1  UNL1        0.0485
     39 C          63.1179   85.8390   13.0099 C.ar    1  UNL1       -0.0204
     40 C          63.8066   84.6237   13.5565 C.ar    1  UNL1       -0.0042
     41 C          64.8869   84.7734   14.5864 C.ar    1  UNL1       -0.0003
     42 C          65.2784   86.1383   15.0697 C.ar    1  UNL1       -0.0000
     43 C          64.5897   87.3536   14.5231 C.ar    1  UNL1       -0.0003
     44 C          63.5095   87.2040   13.4933 C.ar    1  UNL1       -0.0042
@<TRIPOS>BOND
     1    20    21    1
     2    21    22    1
     3    21    19    1
     4    19     2    1
     5     2     1    1
     6     1    23    1
     7    23    24    1
     8    23    26    1
     9    26    38    1
    10    38    39    1
    11    39    40   ar
    12    40    41   ar
    13    41    42   ar
    14    42    43   ar
    15    43    44   ar
    16    26    27    1
    17    27    28   am
    18    28    29    2
    19    28    31    1
    20    31    32    1
    21    32    33    1
    22    33    34   ar
    23    34    35   ar
    24    35    36   ar
    25    36    37   ar
    26     2     3   am
    27     3     4    2
    28     3     5    1
    29     5     6   ar
    30     6     7   ar
    31     7     8   ar
    32     8     9   ar
    33     9    10   ar
    34    10    14    1
    35    14    15    1
    36    15    16    1
    37    16    17    1
    38    17    18    1
    39    10    11   ar
    40    11    12   ar
    41    12    13   ar
    42    44    39   ar
    43    37    33   ar
    44    13     5   ar
    45    12     8   ar
    46    18    14    1
    47    24    25    1
    48    27    30    1
@<TRIPOS>MOLECULE
*****
 44 48 0 0 0
SMALL
GASTEIGER

@<TRIPOS>ATOM
      1 C          64.2165   86.6450   13.7746 C.3     1  UNL1        0.1245
      2 N          63.9529   87.2347   15.1284 N.am    1  UNL1       -0.2735
      3 C          63.7979   88.7187   15.2828 C.2     1  UNL1        0.2492
      4 O          63.5344   89.3084   16.6365 O.2     1  UNL1       -0.2699
      5 C          63.9065   89.6129   14.0833 C.ar    1  UNL1        0.0567
      6 C          62.9777   89.4244   12.9207 C.ar    1  UNL1        0.0063
      7 C          63.0863   90.3186   11.7214 C.ar    1  UNL1        0.0225
      8 C          64.1238   91.4014   11.6846 C.ar    1  UNL1        0.1202
      9 N          64.4660   92.4287   10.6465 N.ar    1  UNL1       -0.1946
     10 C          65.6064   93.2521   11.1676 C.ar    1  UNL1        0.2924
     11 O          65.9689   92.7337   12.5277 O.2     1  UNL1       -0.4237
     12 C          65.0526   91.5899   12.8472 C.ar    1  UNL1        0.1662
     13 C          64.9440   90.6957   14.0466 C.ar    1  UNL1        0.0437
     14 N          66.2681   94.3936   10.4539 N.pl3   1  UNL1       -0.2636
     15 C          67.1446   94.2859    9.2414 C.3     1  UNL1        0.0951
     16 C          67.5877   95.6689    8.8656 C.3     1  UNL1        0.0233
     17 C          66.9850   96.6311    9.8458 C.3     1  UNL1        0.0233
     18 C          66.1694   95.8428   10.8275 C.3     1  UNL1        0.0951
     19 C          63.8443   86.3405   16.3278 C.3     1  UNL1        0.0937
     20 C          61.2842   85.9637   16.5596 C.3     1  UNL1        0.0018
     21 C          62.5995   86.3559   17.1646 C.3     1  UNL1        0.0199
     22 C          62.6700   86.7637   18.6064 C.3     1  UNL1        0.0018
     23 C          63.4890   85.4067   13.3414 C.3     1  UNL1        0.1484
     24 O          63.3786   84.2368   14.2737 O.3     1  UNL1       -0.3810
     25 H          63.8281   84.4446   15.1078 H       1  UNL1        0.2105
     26 C          62.8719   85.3384   11.9759 C.3     1  UNL1        0.1075
     27 N          62.5866   84.0065   11.3476 N.am    1  UNL1       -0.2695
     28 C          63.7030   83.2083   10.7422 C.2     1  UNL1        0.4020
     29 O          65.1047   83.7419   10.7651 O.2     1  UNL1       -0.2264
     30 H          61.6666   83.6563   11.3326 H       1  UNL1        0.1528
     31 O          63.4177   81.8764   10.1139 O.3     1  UNL1       -0.4291
     32 C          63.0495   80.7045   10.9747 C.3     1  UNL1        0.2447
     33 C          62.8223   80.8960   12.4451 C.ar    1  UNL1        0.0714
     34 C          63.8882   81.0490   13.4893 C.ar    1  UNL1        0.1053
     35 N          63.2141   81.2156   14.8189 N.ar    1  UNL1       -0.2350
     36 C          61.7315   81.1655   14.5963 C.ar    1  UNL1        0.1343
     37 S          61.4894   80.9680   13.1293 S.2     1  UNL1       -0.0652
     38 C          62.5402   86.6019   11.2387 C.3     1  UNL1        0.0485
     39 C          61.6506   86.5546   10.0320 C.ar    1  UNL1       -0.0204
     40 C          62.1023   85.8365    8.7949 C.ar    1  UNL1       -0.0042
     41 C          61.2125   85.7892    7.5881 C.ar    1  UNL1       -0.0003
     42 C          59.8712   86.4600    7.6185 C.ar    1  UNL1       -0.0000
     43 C          59.4196   87.1780    8.8556 C.ar    1  UNL1       -0.0003
     44 C          60.3092   87.2254   10.0623 C.ar    1  UNL1       -0.0042
@<TRIPOS>BOND
     1    20    21    1
     2    21    22    1
     3    21    19    1
     4    19     2    1
     5     2     1    1
     6     1    23    1
     7    23    24    1
     8    23    26    1
     9    26    38    1
    10    38    39    1
    11    39    40   ar
    12    40    41   ar
    13    41    42   ar
    14    42    43   ar
    15    43    44   ar
    16    26    27    1
    17    27    28   am
    18    28    29    2
    19    28    31    1
    20    31    32    1
    21    32    33    1
    22    33    34   ar
    23    34    35   ar
    24    35    36   ar
    25    36    37   ar
    26     2     3   am
    27     3     4    2
    28     3     5    1
    29     5     6   ar
    30     6     7   ar
    31     7     8   ar
    32     8     9   ar
    33     9    10   ar
    34    10    14    1
    35    14    15    1
    36    15    16    1
    37    16    17    1
    38    17    18    1
    39    10    11   ar
    40    11    12   ar
    41    12    13   ar
    42    44    39   ar
    43    37    33   ar
    44    13     5   ar
    45    12     8   ar
    46    18    14    1
    47    24    25    1
    48    27    30    1
@<TRIPOS>MOLECULE
*****
 44 48 0 0 0
SMALL
GASTEIGER

@<TRIPOS>ATOM
      1 C          62.5250   87.6347   10.8402 C.3     1  UNL1        0.1245
      2 N          61.2741   88.3944   10.5113 N.am    1  UNL1       -0.2735
      3 C          61.2731   89.8936   10.5573 C.2     1  UNL1        0.2492
      4 O          60.0222   90.6533   10.2284 O.2     1  UNL1       -0.2699
      5 C          62.5231   90.6333   10.9323 C.ar    1  UNL1        0.0567
      6 C          63.2218   91.4883    9.9171 C.ar    1  UNL1        0.0063
      7 C          64.4717   92.2279   10.2921 C.ar    1  UNL1        0.0225
      8 C          65.0228   92.1126   11.6824 C.ar    1  UNL1        0.1202
      9 N          66.2277   92.7197   12.3380 N.ar    1  UNL1       -0.1946
     10 C          66.2736   92.2399   13.7585 C.ar    1  UNL1        0.2924
     11 O          65.0971   91.3363   13.9807 O.2     1  UNL1       -0.4237
     12 C          64.3241   91.2577   12.6977 C.ar    1  UNL1        0.1662
     13 C          63.0742   90.5180   12.3226 C.ar    1  UNL1        0.0437
     14 N          67.3135   92.6003   14.7777 N.pl3   1  UNL1       -0.2636
     15 C          68.1424   91.6342   15.5712 C.3     1  UNL1        0.0951
     16 C          69.0482   92.4271   16.4663 C.3     1  UNL1        0.0233
     17 C          68.7790   93.8830   16.2260 C.3     1  UNL1        0.0233
     18 C          67.7068   93.9900   15.1823 C.3     1  UNL1        0.0951
     19 C          60.0241   87.6547   10.1362 C.3     1  UNL1        0.0937
     20 C          60.2897   85.9556    8.1888 C.3     1  UNL1        0.0018
     21 C          59.7816   87.2682    8.7073 C.3     1  UNL1        0.0199
     22 C          59.0308   88.1943    7.7969 C.3     1  UNL1        0.0018
     23 C          62.4453   86.3702   11.6432 C.3     1  UNL1        0.1484
     24 O          61.2800   85.4423   11.4674 O.3     1  UNL1       -0.3810
     25 H          60.6747   85.8058   10.8022 H       1  UNL1        0.2105
     26 C          63.5309   86.0338   12.6221 C.3     1  UNL1        0.1075
     27 N          64.0355   84.6251   12.7275 N.am    1  UNL1       -0.2695
     28 C          64.1222   83.7657   11.5011 C.2     1  UNL1        0.4020
     29 O          63.7042   84.3151   10.1693 O.2     1  UNL1       -0.2264
     30 H          64.3098   84.2645   13.6016 H       1  UNL1        0.1528
     31 O          64.6267   82.3571   11.6065 O.3     1  UNL1       -0.4291
     32 C          64.4846   81.6040   12.8959 C.3     1  UNL1        0.2447
     33 C          63.1219   81.2325   13.4012 C.ar    1  UNL1        0.0714
     34 C          62.2111   82.1102   14.2076 C.ar    1  UNL1        0.1053
     35 N          60.9572   81.3384   14.4936 N.ar    1  UNL1       -0.2350
     36 C          61.0930   79.9837   13.8640 C.ar    1  UNL1        0.1343
     37 S          62.4308   79.9183   13.1889 S.2     1  UNL1       -0.0652
     38 C          64.1119   87.1059   13.4956 C.3     1  UNL1        0.0485
     39 C          63.7049   87.2021   14.9361 C.ar    1  UNL1       -0.0204
     40 C          63.5092   88.5465   15.5720 C.ar    1  UNL1       -0.0042
     41 C          63.1023   88.6426   17.0126 C.ar    1  UNL1       -0.0003
     42 C          62.8910   87.3945   17.8171 C.ar    1  UNL1       -0.0000
     43 C          63.0867   86.0501   17.1812 C.ar    1  UNL1       -0.0003
     44 C          63.4936   85.9539   15.7407 C.ar    1  UNL1       -0.0042
@<TRIPOS>BOND
     1    20    21    1
     2    21    22    1
     3    21    19    1
     4    19     2    1
     5     2     1    1
     6     1    23    1
     7    23    24    1
     8    23    26    1
     9    26    38    1
    10    38    39    1
    11    39    40   ar
    12    40    41   ar
    13    41    42   ar
    14    42    43   ar
    15    43    44   ar
    16    26    27    1
    17    27    28   am
    18    28    29    2
    19    28    31    1
    20    31    32    1
    21    32    33    1
    22    33    34   ar
    23    34    35   ar
    24    35    36   ar
    25    36    37   ar
    26     2     3   am
    27     3     4    2
    28     3     5    1
    29     5     6   ar
    30     6     7   ar
    31     7     8   ar
    32     8     9   ar
    33     9    10   ar
    34    10    14    1
    35    14    15    1
    36    15    16    1
    37    16    17    1
    38    17    18    1
    39    10    11   ar
    40    11    12   ar
    41    12    13   ar
    42    44    39   ar
    43    37    33   ar
    44    13     5   ar
    45    12     8   ar
    46    18    14    1
    47    24    25    1
    48    27    30    1
@<TRIPOS>MOLECULE
*****
 44 48 0 0 0
SMALL
GASTEIGER

@<TRIPOS>ATOM
      1 C          62.4346   87.4223   10.7042 C.3     1  UNL1        0.1245
      2 N          61.1704   88.1393   10.3332 N.am    1  UNL1       -0.2735
      3 C          61.1259   89.6386   10.3500 C.2     1  UNL1        0.2492
      4 O          59.8617   90.3556    9.9791 O.2     1  UNL1       -0.2699
      5 C          62.3457   90.4208   10.7379 C.ar    1  UNL1        0.0567
      6 C          62.9950   91.3387    9.7450 C.ar    1  UNL1        0.0063
      7 C          64.2147   92.1209   10.1329 C.ar    1  UNL1        0.0225
      8 C          64.7850   91.9852   11.5136 C.ar    1  UNL1        0.1202
      9 N          65.9687   92.6240   12.1779 N.ar    1  UNL1       -0.1946
     10 C          66.0508   92.1008   13.5812 C.ar    1  UNL1        0.2924
     11 O          64.9179   91.1387   13.7843 O.2     1  UNL1       -0.4237
     12 C          64.1357   91.0673   12.5064 C.ar    1  UNL1        0.1662
     13 C          62.9160   90.2851   12.1186 C.ar    1  UNL1        0.0437
     14 N          67.0843   92.4740   14.6024 N.pl3   1  UNL1       -0.2636
     15 C          67.9090   91.5180   15.4123 C.3     1  UNL1        0.0951
     16 C          68.8089   92.3221   16.3033 C.3     1  UNL1        0.0233
     17 C          68.5403   93.7748   16.0440 C.3     1  UNL1        0.0233
     18 C          67.4743   93.8687   14.9927 C.3     1  UNL1        0.0951
     19 C          59.9507   87.3571    9.9454 C.3     1  UNL1        0.0937
     20 C          58.9527   88.3097    7.7439 C.3     1  UNL1        0.0018
     21 C          59.5990   87.1852    8.4973 C.3     1  UNL1        0.0199
     22 C          59.8938   85.8887    7.8027 C.3     1  UNL1        0.0018
     23 C          62.7148   86.0584   10.1460 C.3     1  UNL1        0.1484
     24 O          62.8622   85.8698    8.6653 O.3     1  UNL1       -0.3810
     25 H          62.7486   86.7229    8.2178 H       1  UNL1        0.2105
     26 C          62.8474   84.8832   11.0687 C.3     1  UNL1        0.1075
     27 N          62.3029   84.9602   12.4643 N.am    1  UNL1       -0.2695
     28 C          63.2347   84.8920   13.6378 C.2     1  UNL1        0.4020
     29 O          64.7111   84.7469   13.4156 O.2     1  UNL1       -0.2264
     30 H          61.3339   85.0554   12.6101 H       1  UNL1        0.1528
     31 O          62.6903   84.9689   15.0333 O.3     1  UNL1       -0.4291
     32 C          63.4753   85.6616   16.1076 C.3     1  UNL1        0.2447
     33 C          63.4736   87.1594   16.1903 C.ar    1  UNL1        0.0714
     34 C          64.0591   88.0990   15.1782 C.ar    1  UNL1        0.1053
     35 N          63.8335   89.5007   15.6620 N.ar    1  UNL1       -0.2350
     36 C          63.1086   89.4275   16.9731 C.ar    1  UNL1        0.1343
     37 S          62.8861   87.9805   17.2996 S.2     1  UNL1       -0.0652
     38 C          63.5246   83.6312   10.5959 C.3     1  UNL1        0.0485
     39 C          63.1583   82.3072   11.1981 C.ar    1  UNL1       -0.0204
     40 C          63.2640   81.0554   10.3785 C.ar    1  UNL1       -0.0042
     41 C          62.8977   79.7313   10.9808 C.ar    1  UNL1       -0.0003
     42 C          62.4256   79.6591   12.4028 C.ar    1  UNL1       -0.0000
     43 C          62.3199   80.9109   13.2224 C.ar    1  UNL1       -0.0003
     44 C          62.6862   82.2349   12.6201 C.ar    1  UNL1       -0.0042
@<TRIPOS>BOND
     1    20    21    1
     2    21    22    1
     3    21    19    1
     4    19     2    1
     5     2     1    1
     6     1    23    1
     7    23    24    1
     8    23    26    1
     9    26    38    1
    10    38    39    1
    11    39    40   ar
    12    40    41   ar
    13    41    42   ar
    14    42    43   ar
    15    43    44   ar
    16    26    27    1
    17    27    28   am
    18    28    29    2
    19    28    31    1
    20    31    32    1
    21    32    33    1
    22    33    34   ar
    23    34    35   ar
    24    35    36   ar
    25    36    37   ar
    26     2     3   am
    27     3     4    2
    28     3     5    1
    29     5     6   ar
    30     6     7   ar
    31     7     8   ar
    32     8     9   ar
    33     9    10   ar
    34    10    14    1
    35    14    15    1
    36    15    16    1
    37    16    17    1
    38    17    18    1
    39    10    11   ar
    40    11    12   ar
    41    12    13   ar
    42    44    39   ar
    43    37    33   ar
    44    13     5   ar
    45    12     8   ar
    46    18    14    1
    47    24    25    1
    48    27    30    1
@<TRIPOS>MOLECULE
*****
 44 48 0 0 0
SMALL
GASTEIGER

@<TRIPOS>ATOM
      1 C          62.8274   87.1855   11.3653 C.3     1  UNL1        0.1245
      2 N          61.5936   87.7384   10.7155 N.am    1  UNL1       -0.2735
      3 C          61.4698   89.2137   10.4744 C.2     1  UNL1        0.2492
      4 O          60.2361   89.7665    9.8246 O.2     1  UNL1       -0.2699
      5 C          62.5799   90.1362   10.8831 C.ar    1  UNL1        0.0567
      6 C          63.0258   91.2291    9.9576 C.ar    1  UNL1        0.0063
      7 C          64.1357   92.1516   10.3663 C.ar    1  UNL1        0.0225
      8 C          64.7998   91.9810   11.7005 C.ar    1  UNL1        0.1202
      9 N          65.9117   92.7317   12.3715 N.ar    1  UNL1       -0.1946
     10 C          66.1529   92.1026   13.7116 C.ar    1  UNL1        0.2924
     11 O          65.1901   90.9632   13.8689 O.2     1  UNL1       -0.4237
     12 C          64.3538   90.8880   12.6259 C.ar    1  UNL1        0.1662
     13 C          63.2439   89.9656   12.2172 C.ar    1  UNL1        0.0437
     14 N          67.1772   92.5367   14.7179 N.pl3   1  UNL1       -0.2636
     15 C          67.9578   91.6343   15.6269 C.3     1  UNL1        0.0951
     16 C          68.8637   92.4894   16.4626 C.3     1  UNL1        0.0233
     17 C          68.6428   93.9201   16.0701 C.3     1  UNL1        0.0233
     18 C          67.6005   93.9494   14.9917 C.3     1  UNL1        0.0951
     19 C          60.4836   86.8159   10.3068 C.3     1  UNL1        0.0937
     20 C          59.0355   86.7992    8.1498 C.3     1  UNL1        0.0018
     21 C          60.3073   86.4480    8.8633 C.3     1  UNL1        0.0199
     22 C          61.4028   85.7288    8.1334 C.3     1  UNL1        0.0018
     23 C          62.7807   85.8520   12.0505 C.3     1  UNL1        0.1484
     24 O          61.7712   84.8263   11.6277 O.3     1  UNL1       -0.3810
     25 H          61.2310   85.1830   10.9052 H       1  UNL1        0.2105
     26 C          63.7436   85.5441   13.1587 C.3     1  UNL1        0.1075
     27 N          64.0778   84.1192   13.4877 N.am    1  UNL1       -0.2695
     28 C          63.0846   83.2657   14.2192 C.2     1  UNL1        0.4020
     29 O          61.7572   83.8370   14.6216 O.2     1  UNL1       -0.2264
     30 H          64.9489   83.7443   13.2236 H       1  UNL1        0.1528
     31 O          63.4186   81.8409   14.5482 O.3     1  UNL1       -0.4291
     32 C          62.6690   80.7227   13.8866 C.3     1  UNL1        0.2447
     33 C          62.8124   80.4935   12.4111 C.ar    1  UNL1        0.0714
     34 C          62.6041   79.1911   11.6968 C.ar    1  UNL1        0.1053
     35 N          62.8522   79.4191   10.2352 N.ar    1  UNL1       -0.2350
     36 C          63.2138   80.8625   10.0461 C.ar    1  UNL1        0.1343
     37 S          63.1892   81.5266   11.3909 S.2     1  UNL1       -0.0652
     38 C          64.3724   86.6610   13.9378 C.3     1  UNL1        0.0485
     39 C          63.8405   87.0224   15.2929 C.ar    1  UNL1       -0.0204
     40 C          63.5380   85.9449   16.2917 C.ar    1  UNL1       -0.0042
     41 C          63.0061   86.3063   17.6469 C.ar    1  UNL1       -0.0003
     42 C          62.7766   87.7451   18.0033 C.ar    1  UNL1       -0.0000
     43 C          63.0790   88.8226   17.0045 C.ar    1  UNL1       -0.0003
     44 C          63.6110   88.4613   15.6494 C.ar    1  UNL1       -0.0042
@<TRIPOS>BOND
     1    20    21    1
     2    21    22    1
     3    21    19    1
     4    19     2    1
     5     2     1    1
     6     1    23    1
     7    23    24    1
     8    23    26    1
     9    26    38    1
    10    38    39    1
    11    39    40   ar
    12    40    41   ar
    13    41    42   ar
    14    42    43   ar
    15    43    44   ar
    16    26    27    1
    17    27    28   am
    18    28    29    2
    19    28    31    1
    20    31    32    1
    21    32    33    1
    22    33    34   ar
    23    34    35   ar
    24    35    36   ar
    25    36    37   ar
    26     2     3   am
    27     3     4    2
    28     3     5    1
    29     5     6   ar
    30     6     7   ar
    31     7     8   ar
    32     8     9   ar
    33     9    10   ar
    34    10    14    1
    35    14    15    1
    36    15    16    1
    37    16    17    1
    38    17    18    1
    39    10    11   ar
    40    11    12   ar
    41    12    13   ar
    42    44    39   ar
    43    37    33   ar
    44    13     5   ar
    45    12     8   ar
    46    18    14    1
    47    24    25    1
    48    27    30    1
@<TRIPOS>MOLECULE
*****
 44 48 0 0 0
SMALL
GASTEIGER

@<TRIPOS>ATOM
      1 C          63.9066   89.5643   12.2931 C.3     1  UNL1        0.1245
      2 N          64.2872   90.5367   13.3699 N.am    1  UNL1       -0.2735
      3 C          64.2714   90.1080   14.8073 C.2     1  UNL1        0.2492
      4 O          64.6520   91.0804   15.8841 O.2     1  UNL1       -0.2699
      5 C          63.8749   88.7070   15.1678 C.ar    1  UNL1        0.0567
      6 C          63.4024   88.3951   16.5568 C.ar    1  UNL1        0.0063
      7 C          63.0059   86.9941   16.9173 C.ar    1  UNL1        0.0225
      8 C          63.0820   85.9049   15.8887 C.ar    1  UNL1        0.1202
      9 N          62.7601   84.4412   15.9512 N.ar    1  UNL1       -0.1946
     10 C          63.0337   83.8484   14.6007 C.ar    1  UNL1        0.2924
     11 O          63.5247   84.9458   13.7037 O.2     1  UNL1       -0.4237
     12 C          63.5546   86.2168   14.4997 C.ar    1  UNL1        0.1662
     13 C          63.9510   87.6178   14.1392 C.ar    1  UNL1        0.0437
     14 N          62.8488   82.4106   14.2150 N.pl3   1  UNL1       -0.2636
     15 C          63.9155   81.4931   13.6951 C.3     1  UNL1        0.0951
     16 C          63.2905   80.1534   13.4402 C.3     1  UNL1        0.0233
     17 C          61.8378   80.2431   13.8026 C.3     1  UNL1        0.0233
     18 C          61.5647   81.6382   14.2815 C.3     1  UNL1        0.0951
     19 C          64.6837   91.9377   13.0094 C.3     1  UNL1        0.0937
     20 C          67.2176   92.0171   13.5777 C.3     1  UNL1        0.0018
     21 C          66.0969   92.2368   12.6052 C.3     1  UNL1        0.0199
     22 C          66.3894   92.7555   11.2285 C.3     1  UNL1        0.0018
     23 C          62.4629   89.3674   11.9365 C.3     1  UNL1        0.1484
     24 O          61.3889   89.9398   12.8133 O.3     1  UNL1       -0.3810
     25 H          61.7957   90.4034   13.5620 H       1  UNL1        0.2105
     26 C          62.0932   88.5980   10.7030 C.3     1  UNL1        0.1075
     27 N          61.4639   89.3044    9.5389 N.am    1  UNL1       -0.2695
     28 C          59.9966   89.6155    9.5546 C.2     1  UNL1        0.4020
     29 O          59.1587   89.2203   10.7343 O.2     1  UNL1       -0.2264
     30 H          62.0139   89.5638    8.7647 H       1  UNL1        0.1528
     31 O          59.3673   90.3219    8.3906 O.3     1  UNL1       -0.4291
     32 C          59.5188   89.7668    7.0053 C.3     1  UNL1        0.2447
     33 C          59.3419   90.6624    5.8150 C.ar    1  UNL1        0.0714
     34 C          58.0410   91.2159    5.3137 C.ar    1  UNL1        0.1053
     35 N          58.3298   92.0572    4.1059 N.ar    1  UNL1       -0.2350
     36 C          59.8093   92.0237    3.8608 C.ar    1  UNL1        0.1343
     37 S          60.4348   91.1616    4.9170 S.2     1  UNL1       -0.0652
     38 C          62.3529   87.1223   10.6336 C.3     1  UNL1        0.0485
     39 C          62.0508   86.3661    9.3739 C.ar    1  UNL1       -0.0204
     40 C          60.6589   86.3657    8.8149 C.ar    1  UNL1       -0.0042
     41 C          60.3568   85.6094    7.5551 C.ar    1  UNL1       -0.0003
     42 C          61.4467   84.8537    6.8545 C.ar    1  UNL1       -0.0000
     43 C          62.8386   84.8541    7.4135 C.ar    1  UNL1       -0.0003
     44 C          63.1407   85.6103    8.6732 C.ar    1  UNL1       -0.0042
@<TRIPOS>BOND
     1    20    21    1
     2    21    22    1
     3    21    19    1
     4    19     2    1
     5     2     1    1
     6     1    23    1
     7    23    24    1
     8    23    26    1
     9    26    38    1
    10    38    39    1
    11    39    40   ar
    12    40    41   ar
    13    41    42   ar
    14    42    43   ar
    15    43    44   ar
    16    26    27    1
    17    27    28   am
    18    28    29    2
    19    28    31    1
    20    31    32    1
    21    32    33    1
    22    33    34   ar
    23    34    35   ar
    24    35    36   ar
    25    36    37   ar
    26     2     3   am
    27     3     4    2
    28     3     5    1
    29     5     6   ar
    30     6     7   ar
    31     7     8   ar
    32     8     9   ar
    33     9    10   ar
    34    10    14    1
    35    14    15    1
    36    15    16    1
    37    16    17    1
    38    17    18    1
    39    10    11   ar
    40    11    12   ar
    41    12    13   ar
    42    44    39   ar
    43    37    33   ar
    44    13     5   ar
    45    12     8   ar
    46    18    14    1
    47    24    25    1
    48    27    30    1
@<TRIPOS>MOLECULE
*****
 44 48 0 0 0
SMALL
GASTEIGER

@<TRIPOS>ATOM
      1 C          64.6639   90.4362   13.5188 C.3     1  UNL1        0.1245
      2 N          64.6825   91.2344   14.7886 N.am    1  UNL1       -0.2735
      3 C          64.2629   90.5983   16.0806 C.2     1  UNL1        0.2492
      4 O          64.2815   91.3966   17.3504 O.2     1  UNL1       -0.2699
      5 C          63.8247   89.1639   16.1028 C.ar    1  UNL1        0.0567
      6 C          63.0151   88.6447   17.2539 C.ar    1  UNL1        0.0063
      7 C          62.5769   87.2104   17.2761 C.ar    1  UNL1        0.0225
      8 C          62.9483   86.2952   16.1471 C.ar    1  UNL1        0.1202
      9 N          62.6613   84.8445   15.8951 N.ar    1  UNL1       -0.1946
     10 C          63.2935   84.4672   14.5883 C.ar    1  UNL1        0.2924
     11 O          63.9712   85.6846   14.0326 O.2     1  UNL1       -0.4237
     12 C          63.7578   86.8143   14.9960 C.ar    1  UNL1        0.1662
     13 C          64.1960   88.2487   14.9738 C.ar    1  UNL1        0.0437
     14 N          63.2549   83.1106   13.9492 N.pl3   1  UNL1       -0.2636
     15 C          64.1228   82.6438   12.8183 C.3     1  UNL1        0.0951
     16 C          63.7458   81.2274   12.4991 C.3     1  UNL1        0.0233
     17 C          62.6451   80.8190   13.4327 C.3     1  UNL1        0.0233
     18 C          62.3417   81.9830   14.3289 C.3     1  UNL1        0.0951
     19 C          65.1208   92.6689   14.7664 C.3     1  UNL1        0.0937
     20 C          67.6520   92.1073   14.6010 C.3     1  UNL1        0.0018
     21 C          66.5026   93.0238   14.3032 C.3     1  UNL1        0.0199
     22 C          66.7350   94.2954   13.5420 C.3     1  UNL1        0.0018
     23 C          63.4627   90.4821   12.6215 C.3     1  UNL1        0.1484
     24 O          62.1892   89.8079   13.0381 O.3     1  UNL1       -0.3810
     25 H          62.3120   89.3929   13.9062 H       1  UNL1        0.2105
     26 C          63.5350   91.2023   11.3077 C.3     1  UNL1        0.1075
     27 N          63.0266   90.5411   10.0610 N.am    1  UNL1       -0.2695
     28 C          61.5623   90.2536    9.9082 C.2     1  UNL1        0.4020
     29 O          60.6065   90.6273   11.0022 O.2     1  UNL1       -0.2264
     30 H          63.6539   90.2958    9.3430 H       1  UNL1        0.1528
     31 O          61.0539   89.5924    8.6615 O.3     1  UNL1       -0.4291
     32 C          60.4885   88.2045    8.7258 C.3     1  UNL1        0.2447
     33 C          61.0976   87.1884    9.6459 C.ar    1  UNL1        0.0714
     34 C          60.8082   87.0391   11.1101 C.ar    1  UNL1        0.1053
     35 N          61.6348   85.9016   11.6324 N.ar    1  UNL1       -0.2350
     36 C          62.4351   85.3478   10.4909 C.ar    1  UNL1        0.1343
     37 S          62.1031   86.1431    9.2632 S.2     1  UNL1       -0.0652
     38 C          64.1157   92.5837   11.2407 C.3     1  UNL1        0.0485
     39 C          65.4720   92.7986   10.6373 C.ar    1  UNL1       -0.0204
     40 C          66.5425   91.7621   10.8099 C.ar    1  UNL1       -0.0042
     41 C          67.8988   91.9770   10.2064 C.ar    1  UNL1       -0.0003
     42 C          68.1847   93.2284    9.4304 C.ar    1  UNL1       -0.0000
     43 C          67.1143   94.2649    9.2578 C.ar    1  UNL1       -0.0003
     44 C          65.7580   94.0500    9.8612 C.ar    1  UNL1       -0.0042
@<TRIPOS>BOND
     1    20    21    1
     2    21    22    1
     3    21    19    1
     4    19     2    1
     5     2     1    1
     6     1    23    1
     7    23    24    1
     8    23    26    1
     9    26    38    1
    10    38    39    1
    11    39    40   ar
    12    40    41   ar
    13    41    42   ar
    14    42    43   ar
    15    43    44   ar
    16    26    27    1
    17    27    28   am
    18    28    29    2
    19    28    31    1
    20    31    32    1
    21    32    33    1
    22    33    34   ar
    23    34    35   ar
    24    35    36   ar
    25    36    37   ar
    26     2     3   am
    27     3     4    2
    28     3     5    1
    29     5     6   ar
    30     6     7   ar
    31     7     8   ar
    32     8     9   ar
    33     9    10   ar
    34    10    14    1
    35    14    15    1
    36    15    16    1
    37    16    17    1
    38    17    18    1
    39    10    11   ar
    40    11    12   ar
    41    12    13   ar
    42    44    39   ar
    43    37    33   ar
    44    13     5   ar
    45    12     8   ar
    46    18    14    1
    47    24    25    1
    48    27    30    1
@<TRIPOS>MOLECULE
*****
 44 48 0 0 0
SMALL
GASTEIGER

@<TRIPOS>ATOM
      1 C          65.7097   91.3938   13.2880 C.3     1  UNL1        0.1245
      2 N          65.8990   92.1668   14.5594 N.am    1  UNL1       -0.2735
      3 C          65.3593   91.6292   15.8515 C.2     1  UNL1        0.2492
      4 O          65.5487   92.4023   17.1230 O.2     1  UNL1       -0.2699
      5 C          64.6301   90.3185   15.8723 C.ar    1  UNL1        0.0567
      6 C          63.4435   90.1345   16.7712 C.ar    1  UNL1        0.0063
      7 C          62.7144   88.8238   16.7919 C.ar    1  UNL1        0.0225
      8 C          63.1719   87.6971   15.9137 C.ar    1  UNL1        0.1202
      9 N          62.6560   86.3019   15.7206 N.ar    1  UNL1       -0.1946
     10 C          63.5237   85.6236   14.7023 C.ar    1  UNL1        0.2924
     11 O          64.5759   86.5997   14.2661 O.2     1  UNL1       -0.4237
     12 C          64.3584   87.8811   15.0147 C.ar    1  UNL1        0.1662
     13 C          65.0876   89.1918   14.9940 C.ar    1  UNL1        0.0437
     14 N          63.3669   84.2164   14.2072 N.pl3   1  UNL1       -0.2636
     15 C          64.1618   83.5744   13.1090 C.3     1  UNL1        0.0951
     16 C          63.6737   82.1653   12.9465 C.3     1  UNL1        0.0233
     17 C          62.5773   81.9365   13.9441 C.3     1  UNL1        0.0233
     18 C          62.3876   83.2042   14.7234 C.3     1  UNL1        0.0951
     19 C          66.6282   93.4776   14.5387 C.3     1  UNL1        0.0937
     20 C          69.0595   92.5828   14.3430 C.3     1  UNL1        0.0018
     21 C          68.0716   93.5393   14.9423 C.3     1  UNL1        0.0199
     22 C          68.5270   94.5575   15.9453 C.3     1  UNL1        0.0018
     23 C          64.4853   91.6161   12.4504 C.3     1  UNL1        0.1484
     24 O          63.1257   91.5705   13.0824 O.3     1  UNL1       -0.3810
     25 H          63.2161   91.3882   14.0309 H       1  UNL1        0.2105
     26 C          64.6205   91.8839   10.9807 C.3     1  UNL1        0.1075
     27 N          63.4310   91.7361   10.0788 N.am    1  UNL1       -0.2695
     28 C          62.5820   90.5017   10.1535 C.2     1  UNL1        0.4020
     29 O          62.9225   89.4152   11.1302 O.2     1  UNL1       -0.2264
     30 H          63.2075   92.4492    9.4379 H       1  UNL1        0.1528
     31 O          61.3926   90.3538    9.2517 O.3     1  UNL1       -0.4291
     32 C          60.2986   89.3904    9.6052 C.3     1  UNL1        0.2447
     33 C          60.1663   88.0979    8.8555 C.ar    1  UNL1        0.0714
     34 C          59.0898   87.7576    7.8679 C.ar    1  UNL1        0.1053
     35 N          59.3454   86.3682    7.3638 N.ar    1  UNL1       -0.2350
     36 C          60.5800   85.8497    8.0400 C.ar    1  UNL1        0.1343
     37 S          61.0872   86.9187    8.9619 S.2     1  UNL1       -0.0652
     38 C          65.9451   92.2997   10.4129 C.3     1  UNL1        0.0485
     39 C          66.2789   93.7556   10.2764 C.ar    1  UNL1       -0.0204
     40 C          65.7890   94.7366   11.3000 C.ar    1  UNL1       -0.0042
     41 C          66.1228   96.1926   11.1635 C.ar    1  UNL1       -0.0003
     42 C          66.9466   96.6676   10.0034 C.ar    1  UNL1       -0.0000
     43 C          67.4365   95.6867    8.9799 C.ar    1  UNL1       -0.0003
     44 C          67.1027   94.2307    9.1163 C.ar    1  UNL1       -0.0042
@<TRIPOS>BOND
     1    20    21    1
     2    21    22    1
     3    21    19    1
     4    19     2    1
     5     2     1    1
     6     1    23    1
     7    23    24    1
     8    23    26    1
     9    26    38    1
    10    38    39    1
    11    39    40   ar
    12    40    41   ar
    13    41    42   ar
    14    42    43   ar
    15    43    44   ar
    16    26    27    1
    17    27    28   am
    18    28    29    2
    19    28    31    1
    20    31    32    1
    21    32    33    1
    22    33    34   ar
    23    34    35   ar
    24    35    36   ar
    25    36    37   ar
    26     2     3   am
    27     3     4    2
    28     3     5    1
    29     5     6   ar
    30     6     7   ar
    31     7     8   ar
    32     8     9   ar
    33     9    10   ar
    34    10    14    1
    35    14    15    1
    36    15    16    1
    37    16    17    1
    38    17    18    1
    39    10    11   ar
    40    11    12   ar
    41    12    13   ar
    42    44    39   ar
    43    37    33   ar
    44    13     5   ar
    45    12     8   ar
    46    18    14    1
    47    24    25    1
    48    27    30    1
