@<TRIPOS>MOLECULE
*****
 31 35 0 0 0
SMALL
GASTEIGER

@<TRIPOS>ATOM
      1 O          61.2234   89.4856   10.1767 O.2     1  UNL1       -0.2744
      2 C          62.1498   88.9761   11.2407 C.2     1  UNL1        0.2322
      3 C          63.0379   90.0038   11.8772 C.3     1  UNL1        0.1309
      4 C          64.0612   89.8155   12.9577 C.2     1  UNL1        0.0682
      5 N          64.4491   88.5528   13.6685 N.2     1  UNL1       -0.2479
      6 C          63.9096   87.1667   13.4745 C.ar    1  UNL1        0.0943
      7 C          64.5749   86.1860   14.3940 C.ar    1  UNL1        0.0203
      8 C          64.1795   84.7394   14.3607 C.ar    1  UNL1        0.0017
      9 C          63.1188   84.2736   13.4078 C.ar    1  UNL1        0.0035
     10 C          62.4535   85.2543   12.4883 C.ar    1  UNL1        0.0163
     11 C          62.8489   86.7009   12.5216 C.ar    1  UNL1        0.0682
     12 N          62.0658   87.5061   11.5275 N.am    1  UNL1       -0.2824
     13 H          61.4098   87.0034   10.9926 H       1  UNL1        0.1549
     14 C          62.7234   82.8270   13.3745 C.ar    1  UNL1        0.0275
     15 C          61.7591   82.2895   14.3900 C.ar    1  UNL1        0.0022
     16 C          61.3637   80.8429   14.3567 C.ar    1  UNL1        0.0001
     17 C          61.9326   79.9338   13.3079 C.ar    1  UNL1        0.0023
     18 C          62.8970   80.4714   12.2924 C.ar    1  UNL1        0.0296
     19 C          63.2924   81.9180   12.3258 C.ar    1  UNL1        0.1401
     20 F          64.2567   82.4555   11.3103 F       1  UNL1       -0.2042
     21 C          64.7933   91.0534   13.3837 C.ar    1  UNL1        0.0155
     22 C          65.1304   91.2652   14.8299 C.ar    1  UNL1        0.0013
     23 C          65.8625   92.5032   15.2558 C.ar    1  UNL1        0.0015
     24 C          66.2576   93.5293   14.2356 C.ar    1  UNL1        0.0176
     25 C          65.9206   93.3175   12.7893 C.ar    1  UNL1        0.0656
     26 C          65.1884   92.0795   12.3634 C.ar    1  UNL1        0.0187
     27 N          66.3157   94.3436   11.7691 N.ar    1  UNL1       -0.2864
     28 C          66.8617   94.0617   10.4008 C.ar    1  UNL1        0.1022
     29 C          67.1176   95.3757    9.7241 C.ar    1  UNL1        0.1196
     30 N          66.7297   96.4697   10.6742 N.ar    1  UNL1       -0.2220
     31 C          66.2341   95.8319   11.9380 C.ar    1  UNL1        0.1828
@<TRIPOS>BOND
     1     1     2    2
     2     2     3    1
     3     3     4    1
     4     4    21    1
     5    21    22   ar
     6    22    23   ar
     7    23    24   ar
     8    24    25   ar
     9    25    27    1
    10    27    28   ar
    11    28    29   ar
    12    29    30   ar
    13    30    31   ar
    14    25    26   ar
    15     4     5    2
    16     5     6    1
    17     6     7   ar
    18     7     8   ar
    19     8     9   ar
    20     9    14    1
    21    14    15   ar
    22    15    16   ar
    23    16    17   ar
    24    17    18   ar
    25    18    19   ar
    26    19    20    1
    27     9    10   ar
    28    10    11   ar
    29    11    12    1
    30    12     2   am
    31    26    21   ar
    32    11     6   ar
    33    31    27   ar
    34    19    14   ar
    35    12    13    1
@<TRIPOS>MOLECULE
*****
 31 35 0 0 0
SMALL
GASTEIGER

@<TRIPOS>ATOM
      1 O          62.3885   85.3420   12.8420 O.2     1  UNL1       -0.2744
      2 C          62.4497   86.7094   12.2286 C.2     1  UNL1        0.2322
      3 C          61.5935   86.9171   11.0146 C.3     1  UNL1        0.1309
      4 C          61.4351   88.1551   10.1824 C.2     1  UNL1        0.0682
      5 N          62.0938   89.4911   10.3588 N.2     1  UNL1       -0.2479
      6 C          63.0736   89.9192   11.4109 C.ar    1  UNL1        0.0943
      7 C          63.4884   91.3485   11.2243 C.ar    1  UNL1        0.0203
      8 C          64.4663   91.9756   12.1732 C.ar    1  UNL1        0.0017
      9 C          65.0293   91.1734   13.3087 C.ar    1  UNL1        0.0035
     10 C          64.6145   89.7441   13.4954 C.ar    1  UNL1        0.0163
     11 C          63.6366   89.1170   12.5465 C.ar    1  UNL1        0.0682
     12 N          63.3589   87.6885   12.9103 N.am    1  UNL1       -0.2824
     13 H          63.8366   87.3486   13.7012 H       1  UNL1        0.1549
     14 C          66.0072   91.8006   14.2576 C.ar    1  UNL1        0.0275
     15 C          65.5918   92.1136   15.6645 C.ar    1  UNL1        0.0022
     16 C          66.5697   92.7408   16.6135 C.ar    1  UNL1        0.0001
     17 C          67.9631   93.0549   16.1554 C.ar    1  UNL1        0.0023
     18 C          68.3785   92.7419   14.7484 C.ar    1  UNL1        0.0296
     19 C          67.4006   92.1148   13.7996 C.ar    1  UNL1        0.1401
     20 F          67.8161   91.8017   12.3926 F       1  UNL1       -0.2042
     21 C          60.4936   88.0420    9.0202 C.ar    1  UNL1        0.0155
     22 C          59.7386   86.7668    8.7880 C.ar    1  UNL1        0.0013
     23 C          58.7970   86.6538    7.6258 C.ar    1  UNL1        0.0015
     24 C          58.6105   87.8158    6.6958 C.ar    1  UNL1        0.0176
     25 C          59.3655   89.0910    6.9281 C.ar    1  UNL1        0.0656
     26 C          60.3071   89.2040    8.0903 C.ar    1  UNL1        0.0187
     27 N          59.1790   90.2531    5.9981 N.ar    1  UNL1       -0.2864
     28 C          60.2690   90.9883    5.2763 C.ar    1  UNL1        0.1022
     29 C          59.6334   92.0736    4.4588 C.ar    1  UNL1        0.1196
     30 N          58.1505   92.0090    4.6755 N.ar    1  UNL1       -0.2220
     31 C          57.8697   90.8839    5.6268 C.ar    1  UNL1        0.1828
@<TRIPOS>BOND
     1     1     2    2
     2     2     3    1
     3     3     4    1
     4     4    21    1
     5    21    22   ar
     6    22    23   ar
     7    23    24   ar
     8    24    25   ar
     9    25    27    1
    10    27    28   ar
    11    28    29   ar
    12    29    30   ar
    13    30    31   ar
    14    25    26   ar
    15     4     5    2
    16     5     6    1
    17     6     7   ar
    18     7     8   ar
    19     8     9   ar
    20     9    14    1
    21    14    15   ar
    22    15    16   ar
    23    16    17   ar
    24    17    18   ar
    25    18    19   ar
    26    19    20    1
    27     9    10   ar
    28    10    11   ar
    29    11    12    1
    30    12     2   am
    31    26    21   ar
    32    11     6   ar
    33    31    27   ar
    34    19    14   ar
    35    12    13    1
@<TRIPOS>MOLECULE
*****
 31 35 0 0 0
SMALL
GASTEIGER

@<TRIPOS>ATOM
      1 O          61.7611   88.9849   10.0923 O.2     1  UNL1       -0.2744
      2 C          62.3908   88.2448   11.2349 C.2     1  UNL1        0.2322
      3 C          62.9216   89.0974   12.3491 C.3     1  UNL1        0.1309
      4 C          63.5993   88.6658   13.6158 C.2     1  UNL1        0.0682
      5 N          63.9134   87.2748   14.0812 N.2     1  UNL1       -0.2479
      6 C          63.6275   85.9720   13.3949 C.ar    1  UNL1        0.0943
      7 C          64.1094   84.8071   14.2078 C.ar    1  UNL1        0.0203
      8 C          63.9205   83.4086   13.6995 C.ar    1  UNL1        0.0017
      9 C          63.2499   83.1750   12.3782 C.ar    1  UNL1        0.0035
     10 C          62.7681   84.3398   11.5653 C.ar    1  UNL1        0.0163
     11 C          62.9569   85.7384   12.0737 C.ar    1  UNL1        0.0682
     12 N          62.4065   86.7499   11.1124 N.am    1  UNL1       -0.2824
     13 H          62.0021   86.3842   10.2927 H       1  UNL1        0.1549
     14 C          63.0611   81.7763   11.8699 C.ar    1  UNL1        0.0275
     15 C          63.2777   81.4706   10.4175 C.ar    1  UNL1        0.0022
     16 C          63.0889   80.0720    9.9091 C.ar    1  UNL1        0.0001
     17 C          62.6835   78.9792   10.8533 C.ar    1  UNL1        0.0023
     18 C          62.4669   79.2850   12.3058 C.ar    1  UNL1        0.0296
     19 C          62.6557   80.6835   12.8140 C.ar    1  UNL1        0.1401
     20 F          62.4391   80.9893   14.2665 F       1  UNL1       -0.2042
     21 C          64.0181   89.7712   14.5391 C.ar    1  UNL1        0.0155
     22 C          63.0881   90.2391   15.6191 C.ar    1  UNL1        0.0013
     23 C          63.5070   91.3446   16.5425 C.ar    1  UNL1        0.0015
     24 C          64.8558   91.9821   16.3859 C.ar    1  UNL1        0.0176
     25 C          65.7857   91.5141   15.3059 C.ar    1  UNL1        0.0656
     26 C          65.3668   90.4086   14.3825 C.ar    1  UNL1        0.0187
     27 N          67.1344   92.1516   15.1493 N.ar    1  UNL1       -0.2864
     28 C          67.7494   93.1536   16.0807 C.ar    1  UNL1        0.1022
     29 C          69.1001   93.5203   15.5408 C.ar    1  UNL1        0.1196
     30 N          69.3197   92.7448   14.2757 N.ar    1  UNL1       -0.2220
     31 C          68.1049   91.8989   14.0338 C.ar    1  UNL1        0.1828
@<TRIPOS>BOND
     1     1     2    2
     2     2     3    1
     3     3     4    1
     4     4    21    1
     5    21    22   ar
     6    22    23   ar
     7    23    24   ar
     8    24    25   ar
     9    25    27    1
    10    27    28   ar
    11    28    29   ar
    12    29    30   ar
    13    30    31   ar
    14    25    26   ar
    15     4     5    2
    16     5     6    1
    17     6     7   ar
    18     7     8   ar
    19     8     9   ar
    20     9    14    1
    21    14    15   ar
    22    15    16   ar
    23    16    17   ar
    24    17    18   ar
    25    18    19   ar
    26    19    20    1
    27     9    10   ar
    28    10    11   ar
    29    11    12    1
    30    12     2   am
    31    26    21   ar
    32    11     6   ar
    33    31    27   ar
    34    19    14   ar
    35    12    13    1
@<TRIPOS>MOLECULE
*****
 31 35 0 0 0
SMALL
GASTEIGER

@<TRIPOS>ATOM
      1 O          56.2274   91.9286    4.9111 O.2     1  UNL1       -0.2744
      2 C          57.6921   91.6067    4.8808 C.2     1  UNL1        0.2322
      3 C          58.1614   90.6132    5.9020 C.3     1  UNL1        0.1309
      4 C          59.5483   90.0884    6.1280 C.2     1  UNL1        0.0682
      5 N          60.8085   90.4275    5.3884 N.2     1  UNL1       -0.2479
      6 C          60.9931   91.3751    4.2404 C.ar    1  UNL1        0.0943
      7 C          62.4240   91.4216    3.7927 C.ar    1  UNL1        0.0203
      8 C          62.8248   92.3106    2.6530 C.ar    1  UNL1        0.0017
      9 C          61.7947   93.1531    1.9609 C.ar    1  UNL1        0.0035
     10 C          60.3638   93.1067    2.4085 C.ar    1  UNL1        0.0163
     11 C          59.9630   92.2177    3.5483 C.ar    1  UNL1        0.0682
     12 N          58.4939   92.3207    3.8333 N.am    1  UNL1       -0.2824
     13 H          57.9893   92.9387    3.2566 H       1  UNL1        0.1549
     14 C          62.1955   94.0421    0.8211 C.ar    1  UNL1        0.0275
     15 C          62.8727   95.3524    1.0942 C.ar    1  UNL1        0.0022
     16 C          63.2735   96.2414   -0.0456 C.ar    1  UNL1        0.0001
     17 C          62.9971   95.8201   -1.4584 C.ar    1  UNL1        0.0023
     18 C          62.3199   94.5098   -1.7315 C.ar    1  UNL1        0.0296
     19 C          61.9191   93.6208   -0.5917 C.ar    1  UNL1        0.1401
     20 F          61.2419   92.3105   -0.8648 F       1  UNL1       -0.2042
     21 C          59.6943   89.0930    7.2404 C.ar    1  UNL1        0.0155
     22 C          58.9372   87.7989    7.1931 C.ar    1  UNL1        0.0013
     23 C          59.0832   86.8034    8.3057 C.ar    1  UNL1        0.0015
     24 C          59.9863   87.1020    9.4655 C.ar    1  UNL1        0.0176
     25 C          60.7434   88.3961    9.5129 C.ar    1  UNL1        0.0656
     26 C          60.5974   89.3916    8.4003 C.ar    1  UNL1        0.0187
     27 N          61.6465   88.6947   10.6727 N.ar    1  UNL1       -0.2864
     28 C          61.9087   90.0498   11.2598 C.ar    1  UNL1        0.1022
     29 C          62.8702   89.8832   12.3991 C.ar    1  UNL1        0.1196
     30 N          63.2021   88.4251   12.5160 N.ar    1  UNL1       -0.2220
     31 C          62.4459   87.6906   11.4491 C.ar    1  UNL1        0.1828
@<TRIPOS>BOND
     1     1     2    2
     2     2     3    1
     3     3     4    1
     4     4    21    1
     5    21    22   ar
     6    22    23   ar
     7    23    24   ar
     8    24    25   ar
     9    25    27    1
    10    27    28   ar
    11    28    29   ar
    12    29    30   ar
    13    30    31   ar
    14    25    26   ar
    15     4     5    2
    16     5     6    1
    17     6     7   ar
    18     7     8   ar
    19     8     9   ar
    20     9    14    1
    21    14    15   ar
    22    15    16   ar
    23    16    17   ar
    24    17    18   ar
    25    18    19   ar
    26    19    20    1
    27     9    10   ar
    28    10    11   ar
    29    11    12    1
    30    12     2   am
    31    26    21   ar
    32    11     6   ar
    33    31    27   ar
    34    19    14   ar
    35    12    13    1
@<TRIPOS>MOLECULE
*****
 31 35 0 0 0
SMALL
GASTEIGER

@<TRIPOS>ATOM
      1 O          60.8801   88.1786    9.5107 O.2     1  UNL1       -0.2744
      2 C          61.7455   87.5782   10.5787 C.2     1  UNL1        0.2322
      3 C          62.4019   88.5542   11.5096 C.3     1  UNL1        0.1309
      4 C          63.3150   88.2743   12.6664 C.2     1  UNL1        0.0682
      5 N          63.7971   86.9492   13.1778 N.2     1  UNL1       -0.2479
      6 C          63.4853   85.5767   12.6590 C.ar    1  UNL1        0.0943
      7 C          64.1769   84.5164   13.4636 C.ar    1  UNL1        0.0203
      8 C          63.9975   83.0699   13.1097 C.ar    1  UNL1        0.0017
      9 C          63.1265   82.6836   11.9512 C.ar    1  UNL1        0.0035
     10 C          62.4349   83.7439   11.1466 C.ar    1  UNL1        0.0163
     11 C          62.6143   85.1904   11.5005 C.ar    1  UNL1        0.0682
     12 N          61.8400   86.0812   10.5747 N.am    1  UNL1       -0.2824
     13 H          61.3259   85.6227    9.8714 H       1  UNL1        0.1549
     14 C          62.9471   81.2370   11.5973 C.ar    1  UNL1        0.0275
     15 C          63.0886   80.7903   10.1724 C.ar    1  UNL1        0.0022
     16 C          62.9093   79.3437    9.8185 C.ar    1  UNL1        0.0001
     17 C          62.5884   78.3438   10.8896 C.ar    1  UNL1        0.0023
     18 C          62.4469   78.7905   12.3146 C.ar    1  UNL1        0.0296
     19 C          62.6263   80.2371   12.6684 C.ar    1  UNL1        0.1401
     20 F          62.4848   80.6838   14.0934 F       1  UNL1       -0.2042
     21 C          63.8115   89.4787   13.4099 C.ar    1  UNL1        0.0155
     22 C          63.7155   89.5287   14.9060 C.ar    1  UNL1        0.0013
     23 C          64.2121   90.7332   15.6495 C.ar    1  UNL1        0.0015
     24 C          64.8047   91.8875   14.8969 C.ar    1  UNL1        0.0176
     25 C          64.9007   91.8374   13.4008 C.ar    1  UNL1        0.0656
     26 C          64.4041   90.6330   12.6573 C.ar    1  UNL1        0.0187
     27 N          65.4933   92.9918   12.6482 N.ar    1  UNL1       -0.2864
     28 C          65.3258   93.2684   11.1835 C.ar    1  UNL1        0.1022
     29 C          66.0864   94.5198   10.8583 C.ar    1  UNL1        0.1196
     30 N          66.7240   95.0164   12.1220 N.ar    1  UNL1       -0.2220
     31 C          66.3574   94.0720   13.2282 C.ar    1  UNL1        0.1828
@<TRIPOS>BOND
     1     1     2    2
     2     2     3    1
     3     3     4    1
     4     4    21    1
     5    21    22   ar
     6    22    23   ar
     7    23    24   ar
     8    24    25   ar
     9    25    27    1
    10    27    28   ar
    11    28    29   ar
    12    29    30   ar
    13    30    31   ar
    14    25    26   ar
    15     4     5    2
    16     5     6    1
    17     6     7   ar
    18     7     8   ar
    19     8     9   ar
    20     9    14    1
    21    14    15   ar
    22    15    16   ar
    23    16    17   ar
    24    17    18   ar
    25    18    19   ar
    26    19    20    1
    27     9    10   ar
    28    10    11   ar
    29    11    12    1
    30    12     2   am
    31    26    21   ar
    32    11     6   ar
    33    31    27   ar
    34    19    14   ar
    35    12    13    1
@<TRIPOS>MOLECULE
*****
 31 35 0 0 0
SMALL
GASTEIGER

@<TRIPOS>ATOM
      1 O          60.3116   88.5722    9.0112 O.2     1  UNL1       -0.2744
      2 C          61.3306   88.2730   10.0704 C.2     1  UNL1        0.2322
      3 C          62.2011   89.4239   10.4798 C.3     1  UNL1        0.1309
      4 C          63.3004   89.4485   11.5001 C.2     1  UNL1        0.0682
      5 N          63.8007   88.3282   12.3629 N.2     1  UNL1       -0.2479
      6 C          63.3254   86.9065   12.4186 C.ar    1  UNL1        0.0943
      7 C          64.1003   86.1086   13.4250 C.ar    1  UNL1        0.0203
      8 C          63.7821   84.6583   13.6379 C.ar    1  UNL1        0.0017
      9 C          62.6890   84.0060   12.8445 C.ar    1  UNL1        0.0035
     10 C          61.9141   84.8039   11.8381 C.ar    1  UNL1        0.0163
     11 C          62.2322   86.2542   11.6252 C.ar    1  UNL1        0.0682
     12 N          61.3445   86.8623   10.5802 N.am    1  UNL1       -0.2824
     13 H          60.6836   86.2553   10.1753 H       1  UNL1        0.1549
     14 C          62.3709   82.5556   13.0574 C.ar    1  UNL1        0.0275
     15 C          61.4785   82.1419   14.1899 C.ar    1  UNL1        0.0022
     16 C          61.1603   80.6916   14.4028 C.ar    1  UNL1        0.0001
     17 C          61.7346   79.6549   13.4833 C.ar    1  UNL1        0.0023
     18 C          62.6271   80.0686   12.3508 C.ar    1  UNL1        0.0296
     19 C          62.9452   81.5189   12.1379 C.ar    1  UNL1        0.1401
     20 F          63.8376   81.9327   11.0054 F       1  UNL1       -0.2042
     21 C          63.9905   90.7678   11.6815 C.ar    1  UNL1        0.0155
     22 C          63.9538   91.7906   10.5847 C.ar    1  UNL1        0.0013
     23 C          64.6440   93.1099   10.7662 C.ar    1  UNL1        0.0015
     24 C          65.3709   93.4066   12.0443 C.ar    1  UNL1        0.0176
     25 C          65.4077   92.3839   13.1411 C.ar    1  UNL1        0.0656
     26 C          64.7175   91.0645   12.9596 C.ar    1  UNL1        0.0187
     27 N          66.1346   92.6806   14.4192 N.ar    1  UNL1       -0.2864
     28 C          67.4784   93.3363   14.5373 C.ar    1  UNL1        0.1022
     29 C          67.8196   93.4346   15.9947 C.ar    1  UNL1        0.1196
     30 N          66.6866   92.8396   16.7772 N.ar    1  UNL1       -0.2220
     31 C          65.6453   92.3736   15.8035 C.ar    1  UNL1        0.1828
@<TRIPOS>BOND
     1     1     2    2
     2     2     3    1
     3     3     4    1
     4     4    21    1
     5    21    22   ar
     6    22    23   ar
     7    23    24   ar
     8    24    25   ar
     9    25    27    1
    10    27    28   ar
    11    28    29   ar
    12    29    30   ar
    13    30    31   ar
    14    25    26   ar
    15     4     5    2
    16     5     6    1
    17     6     7   ar
    18     7     8   ar
    19     8     9   ar
    20     9    14    1
    21    14    15   ar
    22    15    16   ar
    23    16    17   ar
    24    17    18   ar
    25    18    19   ar
    26    19    20    1
    27     9    10   ar
    28    10    11   ar
    29    11    12    1
    30    12     2   am
    31    26    21   ar
    32    11     6   ar
    33    31    27   ar
    34    19    14   ar
    35    12    13    1
