@<TRIPOS>MOLECULE
*****
 52 57 0 0 0
SMALL
GASTEIGER

@<TRIPOS>ATOM
      1 C          60.0950   89.2068    8.9450 C.2     1  UNL1        0.2491
      2 O          60.3093   90.6297    9.3687 O.2     1  UNL1       -0.2727
      3 N          59.2366   88.9001    7.7539 N.am    1  UNL1       -0.2724
      4 C          60.7392   88.0906    9.7126 C.3     1  UNL1        0.1934
      5 C          63.0931   90.1290   12.1731 C.ar    1  UNL1        0.0574
      6 C          62.1184   89.8197   11.0757 C.ar    1  UNL1        0.0786
      7 N          61.7140   88.4000   10.8100 N.ar    1  UNL1       -0.2979
      8 C          62.2844   87.2895   11.6416 C.ar    1  UNL1        0.1750
      9 N          63.2591   87.5988   12.7389 N.ar    1  UNL1       -0.1847
     10 C          63.6635   89.0185   13.0046 C.ar    1  UNL1        0.2786
     11 O          64.6383   89.3279   14.1020 O.2     1  UNL1       -0.2654
     12 C          63.4976   91.5489   12.4389 C.3     1  UNL1        0.0622
     13 C          67.5661   93.2447    9.5318 C.3     1  UNL1        0.1537
     14 N          66.7300   92.8084   10.6982 N.ar    1  UNL1       -0.2477
     15 C          65.2945   92.3770   10.6417 C.ar    1  UNL1        0.0927
     16 C          64.8599   92.0289   12.0345 C.ar    1  UNL1        0.0220
     17 C          66.0268   92.2451   12.9518 C.ar    1  UNL1        0.1177
     18 N          67.1826   92.7268   12.1260 N.ar    1  UNL1       -0.1679
     19 S          61.8799   85.8696   11.3758 S.3     1  UNL1       -0.0724
     20 C          62.9286   84.8155   11.1783 C.3     1  UNL1        0.0913
     21 C          62.8180   83.5035   11.8970 C.ar    1  UNL1       -0.0108
     22 C          63.0347   82.2197   11.1522 C.ar    1  UNL1       -0.0011
     23 C          62.9240   80.9078   11.8709 C.ar    1  UNL1        0.0293
     24 C          62.5967   80.8797   13.3345 C.ar    1  UNL1        0.1401
     25 F          62.4860   79.5677   14.0532 F       1  UNL1       -0.2042
     26 C          62.3800   82.1635   14.0793 C.ar    1  UNL1        0.0293
     27 C          62.4907   83.4754   13.3606 C.ar    1  UNL1       -0.0011
     28 C          59.0223   87.4771    7.3302 C.3     1  UNL1        0.1111
     29 C          59.7032   86.3638    8.0696 C.3     1  UNL1        0.0939
     30 N          60.8376   85.6211    7.4281 N.3     1  UNL1       -0.2712
     31 C          60.6076   84.8472    6.1638 C.3     1  UNL1        0.0721
     32 C          61.7420   84.1046    5.5222 C.3     1  UNL1        0.0174
     33 C          63.1063   84.1357    6.1449 C.3     1  UNL1        0.0029
     34 C          63.3362   84.9095    7.4091 C.3     1  UNL1        0.0174
     35 C          62.2019   85.6523    8.0507 C.3     1  UNL1        0.0721
     36 C          58.5924   90.0162    6.9863 C.3     1  UNL1        0.1202
     37 C          59.3341   90.6808    5.8645 C.ar    1  UNL1       -0.0023
     38 C          58.6504   91.7183    5.0242 C.ar    1  UNL1       -0.0026
     39 C          59.3921   92.3829    3.9026 C.ar    1  UNL1       -0.0003
     40 C          60.8174   92.0100    3.6212 C.ar    1  UNL1       -0.0000
     41 C          61.5011   90.9724    4.4614 C.ar    1  UNL1       -0.0003
     42 C          60.7595   90.3078    5.5831 C.ar    1  UNL1       -0.0026
     43 C          61.5592   92.6746    2.4994 C.ar    1  UNL1       -0.0000
     44 C          63.0559   92.5954    2.4393 C.ar    1  UNL1       -0.0001
     45 C          63.7976   93.2600    1.3177 C.ar    1  UNL1        0.0039
     46 C          63.0426   94.0036    0.2561 C.ar    1  UNL1        0.0714
     47 C          61.5459   94.0828    0.3162 C.ar    1  UNL1        0.0039
     48 C          60.8042   93.4182    1.4379 C.ar    1  UNL1       -0.0001
     49 C          63.7844   94.6682   -0.8656 C.3     1  UNL1        0.4186
     50 F          64.5261   95.3328   -1.9873 F       1  UNL1       -0.1659
     51 F          65.0862   94.3600   -0.1873 F       1  UNL1       -0.1659
     52 F          62.4825   94.9764   -1.5439 F       1  UNL1       -0.1659
@<TRIPOS>BOND
     1    13    14    1
     2    14    15   ar
     3    15    16   ar
     4    16    12    1
     5    12     5    1
     6     5     6   ar
     7     6     7   ar
     8     7     4    1
     9     4     1    1
    10     1     2    2
    11     1     3   am
    12     3    28    1
    13    28    29    1
    14    29    30    1
    15    30    31    1
    16    31    32    1
    17    32    33    1
    18    33    34    1
    19    34    35    1
    20     3    36    1
    21    36    37    1
    22    37    38   ar
    23    38    39   ar
    24    39    40   ar
    25    40    43    1
    26    43    44   ar
    27    44    45   ar
    28    45    46   ar
    29    46    49    1
    30    49    50    1
    31    49    51    1
    32    49    52    1
    33    46    47   ar
    34    47    48   ar
    35    40    41   ar
    36    41    42   ar
    37     7     8   ar
    38     8    19    1
    39    19    20    1
    40    20    21    1
    41    21    22   ar
    42    22    23   ar
    43    23    24   ar
    44    24    25    1
    45    24    26   ar
    46    26    27   ar
    47     8     9   ar
    48     9    10   ar
    49    10    11    2
    50    16    17   ar
    51    17    18   ar
    52    18    14   ar
    53    10     5   ar
    54    35    30    1
    55    42    37   ar
    56    27    21   ar
    57    48    43   ar
@<TRIPOS>MOLECULE
*****
 52 57 0 0 0
SMALL
GASTEIGER

@<TRIPOS>ATOM
      1 C          62.1600   88.6396   12.3412 C.2     1  UNL1        0.2491
      2 O          61.3029   89.8577   12.5196 O.2     1  UNL1       -0.2727
      3 N          61.6976   87.5204   11.4560 N.am    1  UNL1       -0.2724
      4 C          63.4794   88.5408   13.0479 C.3     1  UNL1        0.1934
      5 C          65.3060   91.8296   14.3117 C.ar    1  UNL1        0.0574
      6 C          64.8505   90.7170   13.4148 C.ar    1  UNL1        0.0786
      7 N          63.9349   89.6536   13.9448 N.ar    1  UNL1       -0.2979
      8 C          63.4749   89.7028   15.3716 C.ar    1  UNL1        0.1750
      9 N          63.9304   90.8155   16.2685 N.ar    1  UNL1       -0.1847
     10 C          64.8459   91.8789   15.7385 C.ar    1  UNL1        0.2786
     11 O          65.3015   92.9916   16.6354 O.2     1  UNL1       -0.2654
     12 C          66.2216   92.8931   13.7817 C.3     1  UNL1        0.0622
     13 C          68.4586   92.1888    9.0510 C.3     1  UNL1        0.1537
     14 N          67.5322   92.6511   10.1364 N.ar    1  UNL1       -0.2477
     15 C          67.6305   92.2955   11.5903 C.ar    1  UNL1        0.0927
     16 C          66.5040   92.9749   12.3108 C.ar    1  UNL1        0.0220
     17 C          65.7093   93.7504   11.3022 C.ar    1  UNL1        0.1177
     18 N          66.3448   93.5503    9.9583 N.ar    1  UNL1       -0.1679
     19 S          62.5593   88.6394   15.9016 S.3     1  UNL1       -0.0724
     20 C          63.1087   87.5316   16.7507 C.3     1  UNL1        0.0913
     21 C          63.4403   86.2060   16.1317 C.ar    1  UNL1       -0.0108
     22 C          64.6717   86.0593   15.2879 C.ar    1  UNL1       -0.0011
     23 C          65.0033   84.7338   14.6690 C.ar    1  UNL1        0.0293
     24 C          64.1033   83.5550   14.8939 C.ar    1  UNL1        0.1401
     25 F          64.4349   82.2295   14.2749 F       1  UNL1       -0.2042
     26 C          62.8719   83.7017   15.7376 C.ar    1  UNL1        0.0293
     27 C          62.5404   85.0272   16.3565 C.ar    1  UNL1       -0.0011
     28 C          62.5547   86.3023   11.2776 C.3     1  UNL1        0.1111
     29 C          62.3208   85.0894   12.1286 C.3     1  UNL1        0.0939
     30 N          62.7363   83.7354   11.6348 N.3     1  UNL1       -0.2712
     31 C          63.7271   83.6169   10.5148 C.3     1  UNL1        0.0721
     32 C          64.1426   82.2628   10.0211 C.3     1  UNL1        0.0174
     33 C          63.5673   81.0272   10.6473 C.3     1  UNL1        0.0029
     34 C          62.5765   81.1456   11.7672 C.3     1  UNL1        0.0174
     35 C          62.1610   82.4997   12.2610 C.3     1  UNL1        0.0721
     36 C          60.3782   87.6191   10.7493 C.3     1  UNL1        0.1202
     37 C          60.2636   88.4146    9.4827 C.ar    1  UNL1       -0.0023
     38 C          59.4245   87.9032    8.3494 C.ar    1  UNL1       -0.0026
     39 C          59.3098   88.6986    7.0828 C.ar    1  UNL1       -0.0003
     40 C          60.0342   90.0052    6.9496 C.ar    1  UNL1       -0.0000
     41 C          60.8733   90.5166    8.0829 C.ar    1  UNL1       -0.0003
     42 C          60.9880   89.7212    9.3495 C.ar    1  UNL1       -0.0026
     43 C          59.9195   90.8007    5.6830 C.ar    1  UNL1       -0.0000
     44 C          58.5780   91.2897    5.2233 C.ar    1  UNL1       -0.0001
     45 C          58.4633   92.0851    3.9568 C.ar    1  UNL1        0.0039
     46 C          59.6900   92.3914    3.1499 C.ar    1  UNL1        0.0714
     47 C          61.0315   91.9024    3.6095 C.ar    1  UNL1        0.0039
     48 C          61.1462   91.1070    4.8761 C.ar    1  UNL1       -0.0001
     49 C          59.5754   93.1869    1.8833 C.3     1  UNL1        0.4186
     50 F          59.4607   93.9823    0.6168 F       1  UNL1       -0.1659
     51 F          59.9182   94.4373    2.6376 F       1  UNL1       -0.1659
     52 F          59.2325   91.9365    1.1290 F       1  UNL1       -0.1659
@<TRIPOS>BOND
     1    13    14    1
     2    14    15   ar
     3    15    16   ar
     4    16    12    1
     5    12     5    1
     6     5     6   ar
     7     6     7   ar
     8     7     4    1
     9     4     1    1
    10     1     2    2
    11     1     3   am
    12     3    28    1
    13    28    29    1
    14    29    30    1
    15    30    31    1
    16    31    32    1
    17    32    33    1
    18    33    34    1
    19    34    35    1
    20     3    36    1
    21    36    37    1
    22    37    38   ar
    23    38    39   ar
    24    39    40   ar
    25    40    43    1
    26    43    44   ar
    27    44    45   ar
    28    45    46   ar
    29    46    49    1
    30    49    50    1
    31    49    51    1
    32    49    52    1
    33    46    47   ar
    34    47    48   ar
    35    40    41   ar
    36    41    42   ar
    37     7     8   ar
    38     8    19    1
    39    19    20    1
    40    20    21    1
    41    21    22   ar
    42    22    23   ar
    43    23    24   ar
    44    24    25    1
    45    24    26   ar
    46    26    27   ar
    47     8     9   ar
    48     9    10   ar
    49    10    11    2
    50    16    17   ar
    51    17    18   ar
    52    18    14   ar
    53    10     5   ar
    54    35    30    1
    55    42    37   ar
    56    27    21   ar
    57    48    43   ar
@<TRIPOS>MOLECULE
*****
 52 57 0 0 0
SMALL
GASTEIGER

@<TRIPOS>ATOM
      1 C          63.4739   88.6690   14.2016 C.2     1  UNL1        0.2491
      2 O          63.5462   87.4419   13.3418 O.2     1  UNL1       -0.2727
      3 N          63.6760   88.5591   15.6839 N.am    1  UNL1       -0.2724
      4 C          63.1995   90.0058   13.5792 C.3     1  UNL1        0.1934
      5 C          60.9451   89.1999   10.4140 C.ar    1  UNL1        0.0574
      6 C          61.5363   89.1205   11.7903 C.ar    1  UNL1        0.0786
      7 N          62.6083   90.0852   12.2028 N.ar    1  UNL1       -0.2979
      8 C          63.0892   91.1292   11.2390 C.ar    1  UNL1        0.1750
      9 N          62.4980   91.2085    9.8628 N.ar    1  UNL1       -0.1847
     10 C          61.4260   90.2439    9.4502 C.ar    1  UNL1        0.2786
     11 O          60.8348   90.3232    8.0739 O.2     1  UNL1       -0.2654
     12 C          59.8731   88.2352   10.0014 C.3     1  UNL1        0.0622
     13 C          62.4034   84.7228    6.9781 C.3     1  UNL1        0.1537
     14 N          61.3243   85.5791    7.5716 N.ar    1  UNL1       -0.2477
     15 C          61.4949   86.5626    8.6913 C.ar    1  UNL1        0.0927
     16 C          60.1612   87.1936    8.9612 C.ar    1  UNL1        0.0220
     17 C          59.1662   86.6002    8.0084 C.ar    1  UNL1        0.1177
     18 N          59.8850   85.6024    7.1495 N.ar    1  UNL1       -0.1679
     19 S          64.1612   92.0938   11.6516 S.3     1  UNL1       -0.0724
     20 C          65.5253   92.0084   11.0337 C.3     1  UNL1        0.0913
     21 C          66.1365   93.2201   10.3946 C.ar    1  UNL1       -0.0108
     22 C          67.4195   93.0968    9.6275 C.ar    1  UNL1       -0.0011
     23 C          68.0306   94.3085    8.9884 C.ar    1  UNL1        0.0293
     24 C          67.3586   95.6434    9.1165 C.ar    1  UNL1        0.1401
     25 F          67.9697   96.8551    8.4774 F       1  UNL1       -0.2042
     26 C          66.0755   95.7666    9.8836 C.ar    1  UNL1        0.0293
     27 C          65.4645   94.5550   10.5226 C.ar    1  UNL1       -0.0011
     28 C          63.6036   89.7861   16.5437 C.3     1  UNL1        0.1111
     29 C          63.8694   91.1365   15.9474 C.3     1  UNL1        0.0939
     30 N          65.2783   91.5688   15.6678 N.3     1  UNL1       -0.2712
     31 C          66.0719   90.8887   14.5917 C.3     1  UNL1        0.0721
     32 C          67.4808   91.3210   14.3121 C.3     1  UNL1        0.0174
     33 C          68.0961   92.4332   15.1085 C.3     1  UNL1        0.0029
     34 C          67.3026   93.1133   16.1845 C.3     1  UNL1        0.0174
     35 C          65.8936   92.6810   16.4641 C.3     1  UNL1        0.0721
     36 C          63.9504   87.2222   16.3063 C.3     1  UNL1        0.1202
     37 C          63.7703   85.9691   15.5017 C.ar    1  UNL1       -0.0023
     38 C          62.4700   85.2232   15.5562 C.ar    1  UNL1       -0.0026
     39 C          62.2898   83.9702   14.7516 C.ar    1  UNL1       -0.0003
     40 C          63.4100   83.4630   13.8926 C.ar    1  UNL1       -0.0000
     41 C          64.7103   84.2088   13.8381 C.ar    1  UNL1       -0.0003
     42 C          64.8904   85.4619   14.6427 C.ar    1  UNL1       -0.0026
     43 C          63.2299   82.2098   13.0880 C.ar    1  UNL1       -0.0000
     44 C          62.8288   80.9338   13.7668 C.ar    1  UNL1       -0.0001
     45 C          62.6487   79.6808   12.9623 C.ar    1  UNL1        0.0039
     46 C          62.8697   79.7037   11.4789 C.ar    1  UNL1        0.0714
     47 C          63.2708   80.9797   10.8000 C.ar    1  UNL1        0.0039
     48 C          63.4509   82.2328   11.6045 C.ar    1  UNL1       -0.0001
     49 C          62.6896   78.4506   10.6743 C.3     1  UNL1        0.4186
     50 F          62.5095   77.1976    9.8696 F       1  UNL1       -0.1659
     51 F          62.5577   79.2713    9.4257 F       1  UNL1       -0.1659
     52 F          62.8214   77.6299   11.9228 F       1  UNL1       -0.1659
@<TRIPOS>BOND
     1    13    14    1
     2    14    15   ar
     3    15    16   ar
     4    16    12    1
     5    12     5    1
     6     5     6   ar
     7     6     7   ar
     8     7     4    1
     9     4     1    1
    10     1     2    2
    11     1     3   am
    12     3    28    1
    13    28    29    1
    14    29    30    1
    15    30    31    1
    16    31    32    1
    17    32    33    1
    18    33    34    1
    19    34    35    1
    20     3    36    1
    21    36    37    1
    22    37    38   ar
    23    38    39   ar
    24    39    40   ar
    25    40    43    1
    26    43    44   ar
    27    44    45   ar
    28    45    46   ar
    29    46    49    1
    30    49    50    1
    31    49    51    1
    32    49    52    1
    33    46    47   ar
    34    47    48   ar
    35    40    41   ar
    36    41    42   ar
    37     7     8   ar
    38     8    19    1
    39    19    20    1
    40    20    21    1
    41    21    22   ar
    42    22    23   ar
    43    23    24   ar
    44    24    25    1
    45    24    26   ar
    46    26    27   ar
    47     8     9   ar
    48     9    10   ar
    49    10    11    2
    50    16    17   ar
    51    17    18   ar
    52    18    14   ar
    53    10     5   ar
    54    35    30    1
    55    42    37   ar
    56    27    21   ar
    57    48    43   ar
@<TRIPOS>MOLECULE
*****
 52 57 0 0 0
SMALL
GASTEIGER

@<TRIPOS>ATOM
      1 C          60.7192   89.4600    9.5814 C.2     1  UNL1        0.2491
      2 O          60.1404   90.7415   10.1038 O.2     1  UNL1       -0.2727
      3 N          60.1971   88.8658    8.3069 N.am    1  UNL1       -0.2724
      4 C          61.8201   88.7728   10.3335 C.3     1  UNL1        0.1934
      5 C          64.1275   91.7640   11.5494 C.ar    1  UNL1        0.0574
      6 C          63.1673   90.9597   10.7241 C.ar    1  UNL1        0.0786
      7 N          62.7804   89.5772   11.1587 N.ar    1  UNL1       -0.2979
      8 C          63.3537   88.9990   12.4185 C.ar    1  UNL1        0.1750
      9 N          64.3139   89.8033   13.2437 N.ar    1  UNL1       -0.1847
     10 C          64.7008   91.1858   12.8091 C.ar    1  UNL1        0.2786
     11 O          65.6610   91.9902   13.6344 O.2     1  UNL1       -0.2654
     12 C          64.5145   93.1466   11.1148 C.3     1  UNL1        0.0622
     13 C          69.2784   92.3680    8.9749 C.3     1  UNL1        0.1537
     14 N          68.0593   93.0366    9.5377 N.ar    1  UNL1       -0.2477
     15 C          66.8351   92.3439   10.0587 C.ar    1  UNL1        0.0927
     16 C          65.8695   93.3945   10.5213 C.ar    1  UNL1        0.0220
     17 C          66.4971   94.7366   10.2863 C.ar    1  UNL1        0.1177
     18 N          67.8504   94.5154    9.6784 N.ar    1  UNL1       -0.1679
     19 S          62.9667   87.6164   12.8530 S.3     1  UNL1       -0.0724
     20 C          63.7993   86.8880   13.8660 C.3     1  UNL1        0.0913
     21 C          63.6709   85.4007   14.0127 C.ar    1  UNL1       -0.0108
     22 C          62.3712   84.8007   14.4606 C.ar    1  UNL1       -0.0011
     23 C          62.2428   83.3134   14.6073 C.ar    1  UNL1        0.0293
     24 C          63.4142   82.4262   14.3061 C.ar    1  UNL1        0.1401
     25 F          63.2858   80.9389   14.4528 F       1  UNL1       -0.2042
     26 C          64.7139   83.0262   13.8582 C.ar    1  UNL1        0.0293
     27 C          64.8423   84.5134   13.7115 C.ar    1  UNL1       -0.0011
     28 C          60.7759   87.5844    7.7845 C.3     1  UNL1        0.1111
     29 C          60.4705   86.2876    8.4736 C.3     1  UNL1        0.0939
     30 N          61.5844   85.4617    9.0455 N.3     1  UNL1       -0.2712
     31 C          62.7217   85.0268    8.1694 C.3     1  UNL1        0.0721
     32 C          63.8356   84.2009    8.7412 C.3     1  UNL1        0.0174
     33 C          63.8124   83.8099   10.1892 C.3     1  UNL1        0.0029
     34 C          62.6752   84.2448   11.0653 C.3     1  UNL1        0.0174
     35 C          61.5612   85.0708   10.4935 C.3     1  UNL1        0.0721
     36 C          59.0961   89.5531    7.5548 C.3     1  UNL1        0.1202
     37 C          59.4114   90.3428    6.3191 C.ar    1  UNL1       -0.0023
     38 C          60.8223   90.4154    5.8151 C.ar    1  UNL1       -0.0026
     39 C          61.1377   91.2051    4.5794 C.ar    1  UNL1       -0.0003
     40 C          60.0421   91.9221    3.8477 C.ar    1  UNL1       -0.0000
     41 C          58.6311   91.8495    4.3517 C.ar    1  UNL1       -0.0003
     42 C          58.3158   91.0599    5.5874 C.ar    1  UNL1       -0.0026
     43 C          60.3574   92.7119    2.6120 C.ar    1  UNL1       -0.0000
     44 C          59.2584   93.0933    1.6650 C.ar    1  UNL1       -0.0001
     45 C          59.5737   93.8830    0.4293 C.ar    1  UNL1        0.0039
     46 C          60.9878   94.2912    0.1406 C.ar    1  UNL1        0.0714
     47 C          62.0868   93.9098    1.0876 C.ar    1  UNL1        0.0039
     48 C          61.7716   93.1201    2.3233 C.ar    1  UNL1       -0.0001
     49 C          61.3031   95.0809   -1.0952 C.3     1  UNL1        0.4186
     50 F          61.6184   95.8706   -2.3309 F       1  UNL1       -0.1659
     51 F          60.8773   93.9208   -1.9452 F       1  UNL1       -0.1659
     52 F          61.7290   96.2411   -0.2451 F       1  UNL1       -0.1659
@<TRIPOS>BOND
     1    13    14    1
     2    14    15   ar
     3    15    16   ar
     4    16    12    1
     5    12     5    1
     6     5     6   ar
     7     6     7   ar
     8     7     4    1
     9     4     1    1
    10     1     2    2
    11     1     3   am
    12     3    28    1
    13    28    29    1
    14    29    30    1
    15    30    31    1
    16    31    32    1
    17    32    33    1
    18    33    34    1
    19    34    35    1
    20     3    36    1
    21    36    37    1
    22    37    38   ar
    23    38    39   ar
    24    39    40   ar
    25    40    43    1
    26    43    44   ar
    27    44    45   ar
    28    45    46   ar
    29    46    49    1
    30    49    50    1
    31    49    51    1
    32    49    52    1
    33    46    47   ar
    34    47    48   ar
    35    40    41   ar
    36    41    42   ar
    37     7     8   ar
    38     8    19    1
    39    19    20    1
    40    20    21    1
    41    21    22   ar
    42    22    23   ar
    43    23    24   ar
    44    24    25    1
    45    24    26   ar
    46    26    27   ar
    47     8     9   ar
    48     9    10   ar
    49    10    11    2
    50    16    17   ar
    51    17    18   ar
    52    18    14   ar
    53    10     5   ar
    54    35    30    1
    55    42    37   ar
    56    27    21   ar
    57    48    43   ar
@<TRIPOS>MOLECULE
*****
 52 57 0 0 0
SMALL
GASTEIGER

@<TRIPOS>ATOM
      1 C          61.7826   88.3524   11.7068 C.2     1  UNL1        0.2491
      2 O          61.2319   89.7450   11.7935 O.2     1  UNL1       -0.2727
      3 N          61.0537   87.3054   10.9179 N.am    1  UNL1       -0.2724
      4 C          63.0622   88.0069   12.4091 C.3     1  UNL1        0.1934
      5 C          64.8664   91.4165   13.3414 C.ar    1  UNL1        0.0574
      6 C          64.1353   90.3685   12.5559 C.ar    1  UNL1        0.0786
      7 N          63.7933   89.0550   13.1946 N.ar    1  UNL1       -0.2979
      8 C          64.1825   88.7897   14.6187 C.ar    1  UNL1        0.1750
      9 N          64.9135   89.8377   15.4042 N.ar    1  UNL1       -0.1847
     10 C          65.2555   91.1511   14.7655 C.ar    1  UNL1        0.2786
     11 O          65.9866   92.1993   15.5510 O.2     1  UNL1       -0.2654
     12 C          65.2084   92.7300   12.7028 C.3     1  UNL1        0.0622
     13 C          67.9141   94.0882    8.3767 C.3     1  UNL1        0.1537
     14 N          67.5171   93.4210    9.6602 N.ar    1  UNL1       -0.2477
     15 C          66.2599   93.6800   10.4364 C.ar    1  UNL1        0.0927
     16 C          66.2734   92.7967   11.6486 C.ar    1  UNL1        0.0220
     17 C          67.5389   91.9919   11.6217 C.ar    1  UNL1        0.1177
     18 N          68.3076   92.3777   10.3928 N.ar    1  UNL1       -0.1679
     19 S          63.8405   87.4761   15.2573 S.3     1  UNL1       -0.0724
     20 C          64.6337   86.2488   14.9193 C.3     1  UNL1        0.0913
     21 C          63.9315   85.0037   14.4642 C.ar    1  UNL1       -0.0108
     22 C          62.9565   84.3174   15.3742 C.ar    1  UNL1       -0.0011
     23 C          62.2544   83.0724   14.9192 C.ar    1  UNL1        0.0293
     24 C          62.5274   82.5138   13.5541 C.ar    1  UNL1        0.1401
     25 F          61.8253   81.2688   13.0991 F       1  UNL1       -0.2042
     26 C          63.5025   83.2001   12.6441 C.ar    1  UNL1        0.0293
     27 C          64.2045   84.4451   13.0992 C.ar    1  UNL1       -0.0011
     28 C          61.6043   85.9128   10.8312 C.3     1  UNL1        0.1111
     29 C          62.6629   85.5865    9.8198 C.3     1  UNL1        0.0939
     30 N          62.2737   85.2213    8.4180 N.3     1  UNL1       -0.2712
     31 C          60.8403   85.3215    7.9873 C.3     1  UNL1        0.0721
     32 C          60.4511   84.9563    6.5855 C.3     1  UNL1        0.0174
     33 C          61.4952   84.4909    5.6144 C.3     1  UNL1        0.0029
     34 C          62.9286   84.3907    6.0450 C.3     1  UNL1        0.0174
     35 C          63.3178   84.7559    7.4469 C.3     1  UNL1        0.0721
     36 C          59.7740   87.6510   10.2156 C.3     1  UNL1        0.1202
     37 C          59.8036   88.4905    8.9728 C.ar    1  UNL1       -0.0023
     38 C          58.9515   88.1182    7.7958 C.ar    1  UNL1       -0.0026
     39 C          58.9810   88.9576    6.5531 C.ar    1  UNL1       -0.0003
     40 C          59.8627   90.1693    6.4873 C.ar    1  UNL1       -0.0000
     41 C          60.7148   90.5416    7.6643 C.ar    1  UNL1       -0.0003
     42 C          60.6853   89.7022    8.9070 C.ar    1  UNL1       -0.0026
     43 C          59.8923   91.0088    5.2445 C.ar    1  UNL1       -0.0000
     44 C          61.1947   91.2734    4.5491 C.ar    1  UNL1       -0.0001
     45 C          61.2244   92.1129    3.3063 C.ar    1  UNL1        0.0039
     46 C          59.9516   92.6876    2.7591 C.ar    1  UNL1        0.0714
     47 C          58.6491   92.4230    3.4545 C.ar    1  UNL1        0.0039
     48 C          58.6195   91.5835    4.6972 C.ar    1  UNL1       -0.0001
     49 C          59.9811   93.5271    1.5163 C.3     1  UNL1        0.4186
     50 F          60.0108   94.3666    0.2735 F       1  UNL1       -0.1659
     51 F          61.2477   94.1786    1.9865 F       1  UNL1       -0.1659
     52 F          58.7146   92.8756    1.0460 F       1  UNL1       -0.1659
@<TRIPOS>BOND
     1    13    14    1
     2    14    15   ar
     3    15    16   ar
     4    16    12    1
     5    12     5    1
     6     5     6   ar
     7     6     7   ar
     8     7     4    1
     9     4     1    1
    10     1     2    2
    11     1     3   am
    12     3    28    1
    13    28    29    1
    14    29    30    1
    15    30    31    1
    16    31    32    1
    17    32    33    1
    18    33    34    1
    19    34    35    1
    20     3    36    1
    21    36    37    1
    22    37    38   ar
    23    38    39   ar
    24    39    40   ar
    25    40    43    1
    26    43    44   ar
    27    44    45   ar
    28    45    46   ar
    29    46    49    1
    30    49    50    1
    31    49    51    1
    32    49    52    1
    33    46    47   ar
    34    47    48   ar
    35    40    41   ar
    36    41    42   ar
    37     7     8   ar
    38     8    19    1
    39    19    20    1
    40    20    21    1
    41    21    22   ar
    42    22    23   ar
    43    23    24   ar
    44    24    25    1
    45    24    26   ar
    46    26    27   ar
    47     8     9   ar
    48     9    10   ar
    49    10    11    2
    50    16    17   ar
    51    17    18   ar
    52    18    14   ar
    53    10     5   ar
    54    35    30    1
    55    42    37   ar
    56    27    21   ar
    57    48    43   ar
@<TRIPOS>MOLECULE
*****
 52 57 0 0 0
SMALL
GASTEIGER

@<TRIPOS>ATOM
      1 C          63.2466   88.8704   14.3124 C.2     1  UNL1        0.2491
      2 O          63.4300   87.7414   13.3420 O.2     1  UNL1       -0.2727
      3 N          63.6243   88.6901   15.7528 N.am    1  UNL1       -0.2724
      4 C          62.6854   90.1797   13.8424 C.3     1  UNL1        0.1934
      5 C          65.1806   92.3525   11.6509 C.ar    1  UNL1        0.0574
      6 C          64.5694   91.6544   12.8294 C.ar    1  UNL1        0.0786
      7 N          63.2967   90.8779   12.6639 N.ar    1  UNL1       -0.2979
      8 C          62.6354   90.7995   11.3198 C.ar    1  UNL1        0.1750
      9 N          63.2466   91.4976   10.1413 N.ar    1  UNL1       -0.1847
     10 C          64.5193   92.2741   10.3069 C.ar    1  UNL1        0.2786
     11 O          65.1306   92.9723    9.1283 O.2     1  UNL1       -0.2654
     12 C          66.4533   93.1291   11.8164 C.3     1  UNL1        0.0622
     13 C          67.7917   96.8559    8.3236 C.3     1  UNL1        0.1537
     14 N          67.2297   96.1709    9.5340 N.ar    1  UNL1       -0.2477
     15 C          67.3032   94.7021    9.8295 C.ar    1  UNL1        0.0927
     16 C          66.6145   94.4578   11.1394 C.ar    1  UNL1        0.0220
     17 C          66.1154   95.7756   11.6536 C.ar    1  UNL1        0.1177
     18 N          66.4956   96.8344   10.6614 N.ar    1  UNL1       -0.1679
     19 S          61.3627   90.0229   11.1543 S.3     1  UNL1       -0.0724
     20 C          60.7110   89.9295    9.8066 C.3     1  UNL1        0.0913
     21 C          60.6419   88.6099    9.0967 C.ar    1  UNL1       -0.0108
     22 C          61.6692   87.5533    9.3761 C.ar    1  UNL1       -0.0011
     23 C          61.6001   86.2337    8.6663 C.ar    1  UNL1        0.0293
     24 C          60.5036   85.9708    7.6770 C.ar    1  UNL1        0.1401
     25 F          60.4345   84.6511    6.9671 F       1  UNL1       -0.2042
     26 C          59.4763   87.0274    7.3976 C.ar    1  UNL1        0.0293
     27 C          59.5454   88.3469    8.1075 C.ar    1  UNL1       -0.0011
     28 C          63.4410   89.8191   16.7233 C.3     1  UNL1        0.1111
     29 C          63.7837   91.2215   16.3159 C.3     1  UNL1        0.0939
     30 N          65.1985   91.5762   15.9661 N.3     1  UNL1       -0.2712
     31 C          65.9825   90.7013   15.0334 C.3     1  UNL1        0.0721
     32 C          67.3973   91.0560   14.6836 C.3     1  UNL1        0.0174
     33 C          68.0282   92.2857   15.2665 C.3     1  UNL1        0.0029
     34 C          67.2443   93.1607   16.1991 C.3     1  UNL1        0.0174
     35 C          65.8294   92.8059   16.5490 C.3     1  UNL1        0.0721
     36 C          64.1855   87.3808   16.2228 C.3     1  UNL1        0.1202
     37 C          63.9713   86.1382   15.4104 C.ar    1  UNL1       -0.0023
     38 C          65.0825   85.5970   14.5605 C.ar    1  UNL1       -0.0026
     39 C          64.8684   84.3543   13.7481 C.ar    1  UNL1       -0.0003
     40 C          63.5431   83.6529   13.7856 C.ar    1  UNL1       -0.0000
     41 C          62.4319   84.1941   14.6355 C.ar    1  UNL1       -0.0003
     42 C          62.6460   85.4367   15.4479 C.ar    1  UNL1       -0.0026
     43 C          63.3289   82.4103   12.9732 C.ar    1  UNL1       -0.0000
     44 C          62.8986   81.1400   13.6449 C.ar    1  UNL1       -0.0001
     45 C          62.6845   79.8973   12.8326 C.ar    1  UNL1        0.0039
     46 C          62.9006   79.9250   11.3485 C.ar    1  UNL1        0.0714
     47 C          63.3308   81.1953   10.6768 C.ar    1  UNL1        0.0039
     48 C          63.5450   82.4379   11.4891 C.ar    1  UNL1       -0.0001
     49 C          62.6864   78.6823   10.5361 C.3     1  UNL1        0.4186
     50 F          62.4722   77.4397    9.7237 F       1  UNL1       -0.1659
     51 F          62.6781   79.5041    9.2813 F       1  UNL1       -0.1659
     52 F          62.6947   77.8605   11.7909 F       1  UNL1       -0.1659
@<TRIPOS>BOND
     1    13    14    1
     2    14    15   ar
     3    15    16   ar
     4    16    12    1
     5    12     5    1
     6     5     6   ar
     7     6     7   ar
     8     7     4    1
     9     4     1    1
    10     1     2    2
    11     1     3   am
    12     3    28    1
    13    28    29    1
    14    29    30    1
    15    30    31    1
    16    31    32    1
    17    32    33    1
    18    33    34    1
    19    34    35    1
    20     3    36    1
    21    36    37    1
    22    37    38   ar
    23    38    39   ar
    24    39    40   ar
    25    40    43    1
    26    43    44   ar
    27    44    45   ar
    28    45    46   ar
    29    46    49    1
    30    49    50    1
    31    49    51    1
    32    49    52    1
    33    46    47   ar
    34    47    48   ar
    35    40    41   ar
    36    41    42   ar
    37     7     8   ar
    38     8    19    1
    39    19    20    1
    40    20    21    1
    41    21    22   ar
    42    22    23   ar
    43    23    24   ar
    44    24    25    1
    45    24    26   ar
    46    26    27   ar
    47     8     9   ar
    48     9    10   ar
    49    10    11    2
    50    16    17   ar
    51    17    18   ar
    52    18    14   ar
    53    10     5   ar
    54    35    30    1
    55    42    37   ar
    56    27    21   ar
    57    48    43   ar
@<TRIPOS>MOLECULE
*****
 52 57 0 0 0
SMALL
GASTEIGER

@<TRIPOS>ATOM
      1 C          63.0212   89.7918   14.8749 C.2     1  UNL1        0.2491
      2 O          61.6825   89.2444   15.2728 O.2     1  UNL1       -0.2727
      3 N          64.2724   89.0430   15.2269 N.am    1  UNL1       -0.2724
      4 C          63.1087   91.0879   14.1250 C.3     1  UNL1        0.1934
      5 C          61.6439   90.3210   10.5173 C.ar    1  UNL1        0.0574
      6 C          61.8276   90.3018   12.0058 C.ar    1  UNL1        0.0786
      7 N          62.9249   91.1070   12.6364 N.ar    1  UNL1       -0.2979
      8 C          63.8383   91.9314   11.7785 C.ar    1  UNL1        0.1750
      9 N          63.6546   91.9505   10.2899 N.ar    1  UNL1       -0.1847
     10 C          62.5573   91.1453    9.6593 C.ar    1  UNL1        0.2786
     11 O          62.3735   91.1644    8.1707 O.2     1  UNL1       -0.2654
     12 C          60.5466   89.5158    9.8866 C.3     1  UNL1        0.0622
     13 C          63.0250   85.0328    8.6058 C.3     1  UNL1        0.1537
     14 N          61.9889   86.1133    8.7000 N.ar    1  UNL1       -0.2477
     15 C          62.1164   87.3922    9.4734 C.ar    1  UNL1        0.0927
     16 C          60.8496   88.1739    9.2887 C.ar    1  UNL1        0.0220
     17 C          59.9391   87.3781    8.4012 C.ar    1  UNL1        0.1177
     18 N          60.6432   86.1046    8.0373 N.ar    1  UNL1       -0.1679
     19 S          64.9356   92.7366   12.4091 S.3     1  UNL1       -0.0724
     20 C          65.6761   93.7591   11.5992 C.3     1  UNL1        0.0913
     21 C          66.6971   93.3214   10.5911 C.ar    1  UNL1       -0.0108
     22 C          67.4189   92.0190   10.7716 C.ar    1  UNL1       -0.0011
     23 C          68.4398   91.5814    9.7635 C.ar    1  UNL1        0.0293
     24 C          68.7388   92.4462    8.5749 C.ar    1  UNL1        0.1401
     25 F          69.7597   92.0085    7.5668 F       1  UNL1       -0.2042
     26 C          68.0169   93.7486    8.3944 C.ar    1  UNL1        0.0293
     27 C          66.9961   94.1862    9.4025 C.ar    1  UNL1       -0.0011
     28 C          65.6111   89.5904   14.8290 C.3     1  UNL1        0.1111
     29 C          65.7528   91.0407   14.4734 C.3     1  UNL1        0.0939
     30 N          67.0014   91.7851   14.8433 N.3     1  UNL1       -0.2712
     31 C          68.2464   91.6150   14.0241 C.3     1  UNL1        0.0721
     32 C          69.4950   92.3594   14.3940 C.3     1  UNL1        0.0174
     33 C          69.4987   93.2738   15.5830 C.3     1  UNL1        0.0029
     34 C          68.2537   93.4439   16.4022 C.3     1  UNL1        0.0174
     35 C          67.0050   92.6995   16.0323 C.3     1  UNL1        0.0721
     36 C          64.1849   87.7469   15.9768 C.3     1  UNL1        0.1202
     37 C          63.9687   86.4627   15.2322 C.ar    1  UNL1       -0.0023
     38 C          63.8496   85.1705   15.9845 C.ar    1  UNL1       -0.0026
     39 C          63.6334   83.8864   15.2400 C.ar    1  UNL1       -0.0003
     40 C          63.5363   83.8945   13.7432 C.ar    1  UNL1       -0.0000
     41 C          63.6554   85.1868   12.9909 C.ar    1  UNL1       -0.0003
     42 C          63.8716   86.4709   13.7354 C.ar    1  UNL1       -0.0026
     43 C          63.3201   82.6104   12.9987 C.ar    1  UNL1       -0.0000
     44 C          62.9632   81.3604   13.7471 C.ar    1  UNL1       -0.0001
     45 C          62.7470   80.0763   13.0026 C.ar    1  UNL1        0.0039
     46 C          62.8877   80.0422   11.5097 C.ar    1  UNL1        0.0714
     47 C          63.2446   81.2922   10.7612 C.ar    1  UNL1        0.0039
     48 C          63.4608   82.5763   11.5057 C.ar    1  UNL1       -0.0001
     49 C          62.6715   78.7581   10.7651 C.3     1  UNL1        0.4186
     50 F          62.4553   77.4740   10.0205 F       1  UNL1       -0.1659
     51 F          62.9212   79.4683    9.4677 F       1  UNL1       -0.1659
     52 F          62.4217   78.0478   12.0624 F       1  UNL1       -0.1659
@<TRIPOS>BOND
     1    13    14    1
     2    14    15   ar
     3    15    16   ar
     4    16    12    1
     5    12     5    1
     6     5     6   ar
     7     6     7   ar
     8     7     4    1
     9     4     1    1
    10     1     2    2
    11     1     3   am
    12     3    28    1
    13    28    29    1
    14    29    30    1
    15    30    31    1
    16    31    32    1
    17    32    33    1
    18    33    34    1
    19    34    35    1
    20     3    36    1
    21    36    37    1
    22    37    38   ar
    23    38    39   ar
    24    39    40   ar
    25    40    43    1
    26    43    44   ar
    27    44    45   ar
    28    45    46   ar
    29    46    49    1
    30    49    50    1
    31    49    51    1
    32    49    52    1
    33    46    47   ar
    34    47    48   ar
    35    40    41   ar
    36    41    42   ar
    37     7     8   ar
    38     8    19    1
    39    19    20    1
    40    20    21    1
    41    21    22   ar
    42    22    23   ar
    43    23    24   ar
    44    24    25    1
    45    24    26   ar
    46    26    27   ar
    47     8     9   ar
    48     9    10   ar
    49    10    11    2
    50    16    17   ar
    51    17    18   ar
    52    18    14   ar
    53    10     5   ar
    54    35    30    1
    55    42    37   ar
    56    27    21   ar
    57    48    43   ar
