@<TRIPOS>MOLECULE
*****
 39 43 0 0 0
SMALL
GASTEIGER

@<TRIPOS>ATOM
      1 N          63.8878   89.2990   15.4820 N.ar    1  UNL1       -0.2715
      2 C          63.3915   89.8783   16.7735 C.ar    1  UNL1        0.2649
      3 O          63.4474   91.3599   17.0015 O.2     1  UNL1       -0.2666
      4 C          62.8394   88.9761   17.8370 C.ar    1  UNL1        0.0611
      5 C          62.7835   87.4946   17.6091 C.ar    1  UNL1        0.0064
      6 C          63.2798   86.9153   16.3175 C.ar    1  UNL1        0.0177
      7 C          63.2240   85.4338   16.0895 C.ar    1  UNL1        0.0216
      8 C          63.7203   84.8545   14.7980 C.ar    1  UNL1        0.1253
      9 C          64.2724   85.7567   13.7345 C.ar    1  UNL1        0.0217
     10 C          64.3283   87.2382   13.9624 C.ar    1  UNL1        0.0190
     11 C          63.8320   87.8175   15.2539 C.ar    1  UNL1        0.0670
     12 C          63.6293   90.4985   13.1919 C.ar    1  UNL1        0.1549
     13 C          64.1814   91.4007   12.1284 C.ar    1  UNL1        0.0406
     14 C          65.5443   92.0057   12.2913 C.ar    1  UNL1        0.0306
     15 C          66.3551   91.7084   13.5179 C.ar    1  UNL1        0.1417
     16 F          67.7179   92.3134   13.6808 F       1  UNL1       -0.2041
     17 C          65.8029   90.8062   14.5814 C.ar    1  UNL1        0.0503
     18 C          64.4400   90.2012   14.4184 C.ar    1  UNL1        0.1029
     19 C          66.0965   92.9079   11.2278 C.ar    1  UNL1        0.0020
     20 C          67.1705   92.4109   10.3060 C.ar    1  UNL1        0.0009
     21 C          67.7226   93.3131    9.2424 C.ar    1  UNL1        0.0111
     22 C          67.2008   94.7123    9.1007 C.ar    1  UNL1        0.0537
     23 CL         67.7529   95.6145    8.0371 Cl      1  UNL1       -0.0826
     24 C          66.1268   95.2092   10.0224 C.ar    1  UNL1       -0.0113
     25 C          65.6050   96.6084    9.8806 C.3     1  UNL1        0.0319
     26 C          65.5747   94.3070   11.0859 C.ar    1  UNL1       -0.0034
     27 C          61.7044   89.6697   11.6563 C.3     1  UNL1        0.2525
     28 O          62.2663   89.8935   13.0289 O.3     1  UNL1       -0.4700
     29 S          63.6644   83.3729   14.5700 S.O2    1  UNL1        0.0747
     30 O          65.1628   83.3242   14.5197 O.2     1  UNL1       -0.1499
     31 O          62.1661   83.4216   14.6203 O.2     1  UNL1       -0.1499
     32 N          63.6086   81.8914   14.3420 N.pl3   1  UNL1       -0.1976
     33 H          63.7053   81.2725   15.1015 H       1  UNL1        0.1753
     34 C          63.4056   81.3529   12.9567 C.ar    1  UNL1        0.1664
     35 C          62.7938   79.9974   12.7612 C.ar    1  UNL1        0.1344
     36 N          62.5908   79.4589   11.3760 N.ar    1  UNL1       -0.2377
     37 C          62.9996   80.2759   10.1864 C.ar    1  UNL1        0.1196
     38 C          63.6114   81.6315   10.3819 C.ar    1  UNL1        0.1210
     39 N          63.8144   82.1699   11.7670 N.ar    1  UNL1       -0.2247
@<TRIPOS>BOND
     1    27    28    1
     2    28    12    1
     3    12    13   ar
     4    13    14   ar
     5    14    19    1
     6    19    20   ar
     7    20    21   ar
     8    21    22   ar
     9    22    23    1
    10    22    24   ar
    11    24    25    1
    12    24    26   ar
    13    14    15   ar
    14    15    16    1
    15    15    17   ar
    16    17    18   ar
    17    18     1    1
    18     1     2   ar
    19     2     3    2
    20     2     4   ar
    21     4     5   ar
    22     5     6   ar
    23     6     7   ar
    24     7     8   ar
    25     8    29    1
    26    29    30    2
    27    29    31    2
    28    29    32    1
    29    32    34    1
    30    34    35   ar
    31    35    36   ar
    32    36    37   ar
    33    37    38   ar
    34    38    39   ar
    35     8     9   ar
    36     9    10   ar
    37    10    11   ar
    38    18    12   ar
    39    11     1   ar
    40    26    19   ar
    41    11     6   ar
    42    39    34   ar
    43    32    33    1
@<TRIPOS>MOLECULE
*****
 39 43 0 0 0
SMALL
GASTEIGER

@<TRIPOS>ATOM
      1 N          64.0149   89.8871   15.2520 N.ar    1  UNL1       -0.2715
      2 C          63.5332   90.5223   16.5226 C.ar    1  UNL1        0.2649
      3 O          63.5879   92.0126   16.6837 O.2     1  UNL1       -0.2666
      4 C          62.9967   89.6671   17.6320 C.ar    1  UNL1        0.0611
      5 C          62.9419   88.1769   17.4709 C.ar    1  UNL1        0.0064
      6 C          63.4236   87.5416   16.2003 C.ar    1  UNL1        0.0177
      7 C          63.3688   86.0513   16.0391 C.ar    1  UNL1        0.0216
      8 C          63.8505   85.4162   14.7685 C.ar    1  UNL1        0.1253
      9 C          64.3870   86.2713   13.6590 C.ar    1  UNL1        0.0217
     10 C          64.4418   87.7616   13.8202 C.ar    1  UNL1        0.0190
     11 C          63.9601   88.3967   15.0908 C.ar    1  UNL1        0.0670
     12 C          65.8698   91.4393   14.3033 C.ar    1  UNL1        0.1549
     13 C          66.4063   92.2944   13.1938 C.ar    1  UNL1        0.0406
     14 C          65.6244   92.4525   11.9235 C.ar    1  UNL1        0.0306
     15 C          64.3059   91.7554   11.7627 C.ar    1  UNL1        0.1417
     16 F          63.5240   91.9135   10.4925 F       1  UNL1       -0.2041
     17 C          63.7694   90.9003   12.8722 C.ar    1  UNL1        0.0503
     18 C          64.5514   90.7422   14.1425 C.ar    1  UNL1        0.1029
     19 C          66.1609   93.3076   10.8141 C.ar    1  UNL1        0.0020
     20 C          67.3055   92.8188    9.9768 C.ar    1  UNL1        0.0009
     21 C          67.8420   93.6739    8.8673 C.ar    1  UNL1        0.0111
     22 C          67.2339   95.0178    8.5951 C.ar    1  UNL1        0.0537
     23 CL         67.7704   95.8729    7.4856 Cl      1  UNL1       -0.0826
     24 C          66.0893   95.5066    9.4323 C.ar    1  UNL1       -0.0113
     25 C          65.4811   96.8505    9.1601 C.3     1  UNL1        0.0319
     26 C          65.5528   94.6515   10.5418 C.ar    1  UNL1       -0.0034
     27 C          67.8420   92.1557   15.8353 C.3     1  UNL1        0.2525
     28 O          66.6518   91.2812   15.5736 O.3     1  UNL1       -0.4700
     29 S          63.7957   83.9258   14.6073 S.O2    1  UNL1        0.0747
     30 O          65.2829   83.8920   14.4151 O.2     1  UNL1       -0.1499
     31 O          62.3085   83.9596   14.7996 O.2     1  UNL1       -0.1499
     32 N          63.7410   82.4355   14.4462 N.pl3   1  UNL1       -0.1976
     33 H          63.8439   81.8513   15.2319 H       1  UNL1        0.1753
     34 C          63.5294   81.8353   13.0878 C.ar    1  UNL1        0.1664
     35 C          62.9031   80.4787   12.9566 C.ar    1  UNL1        0.1344
     36 N          62.6916   79.8785   11.5983 N.ar    1  UNL1       -0.2377
     37 C          63.1064   80.6350   10.3712 C.ar    1  UNL1        0.1196
     38 C          63.7327   81.9916   10.5024 C.ar    1  UNL1        0.1210
     39 N          63.9442   82.5918   11.8607 N.ar    1  UNL1       -0.2247
@<TRIPOS>BOND
     1    27    28    1
     2    28    12    1
     3    12    13   ar
     4    13    14   ar
     5    14    19    1
     6    19    20   ar
     7    20    21   ar
     8    21    22   ar
     9    22    23    1
    10    22    24   ar
    11    24    25    1
    12    24    26   ar
    13    14    15   ar
    14    15    16    1
    15    15    17   ar
    16    17    18   ar
    17    18     1    1
    18     1     2   ar
    19     2     3    2
    20     2     4   ar
    21     4     5   ar
    22     5     6   ar
    23     6     7   ar
    24     7     8   ar
    25     8    29    1
    26    29    30    2
    27    29    31    2
    28    29    32    1
    29    32    34    1
    30    34    35   ar
    31    35    36   ar
    32    36    37   ar
    33    37    38   ar
    34    38    39   ar
    35     8     9   ar
    36     9    10   ar
    37    10    11   ar
    38    18    12   ar
    39    11     1   ar
    40    26    19   ar
    41    11     6   ar
    42    39    34   ar
    43    32    33    1
@<TRIPOS>MOLECULE
*****
 39 43 0 0 0
SMALL
GASTEIGER

@<TRIPOS>ATOM
      1 N          63.9305   89.1654   14.9302 N.ar    1  UNL1       -0.2715
      2 C          63.4293   89.3179   16.3357 C.ar    1  UNL1        0.2649
      3 O          62.8115   88.1481   17.0428 O.2     1  UNL1       -0.2666
      4 C          63.5458   90.6402   17.0342 C.ar    1  UNL1        0.0611
      5 C          64.1636   91.8100   16.3272 C.ar    1  UNL1        0.0064
      6 C          64.6649   91.6575   14.9216 C.ar    1  UNL1        0.0177
      7 C          65.2827   92.8273   14.2146 C.ar    1  UNL1        0.0216
      8 C          65.7839   92.6748   12.8092 C.ar    1  UNL1        0.1253
      9 C          65.6674   91.3525   12.1107 C.ar    1  UNL1        0.0217
     10 C          65.0496   90.1827   12.8176 C.ar    1  UNL1        0.0190
     11 C          64.5484   90.3352   14.2231 C.ar    1  UNL1        0.0670
     12 C          63.0113   87.7297   12.9697 C.ar    1  UNL1        0.1549
     13 C          62.8948   86.4074   12.2712 C.ar    1  UNL1        0.0406
     14 C          63.5809   85.1984   12.8347 C.ar    1  UNL1        0.0306
     15 C          64.3837   85.3118   14.0968 C.ar    1  UNL1        0.1417
     16 F          65.0699   84.1029   14.6604 F       1  UNL1       -0.2041
     17 C          64.5002   86.6341   14.7953 C.ar    1  UNL1        0.0503
     18 C          63.8140   87.8431   14.2317 C.ar    1  UNL1        0.1029
     19 C          63.4644   83.8761   12.1362 C.ar    1  UNL1        0.0020
     20 C          63.8528   83.7537   10.6925 C.ar    1  UNL1        0.0009
     21 C          63.7363   82.4314    9.9940 C.ar    1  UNL1        0.0111
     22 C          63.2313   81.2315   10.7392 C.ar    1  UNL1        0.0537
     23 CL         63.1148   79.9092   10.0407 Cl      1  UNL1       -0.0826
     24 C          62.8429   81.3539   12.1829 C.ar    1  UNL1       -0.0113
     25 C          62.3380   80.1540   12.9281 C.3     1  UNL1        0.0319
     26 C          62.9595   82.6762   12.8814 C.ar    1  UNL1       -0.0034
     27 C          62.0178   89.0112   10.9397 C.3     1  UNL1        0.2525
     28 O          62.3251   88.9387   12.4061 O.3     1  UNL1       -0.4700
     29 S          66.4018   93.8446   12.1021 S.O2    1  UNL1        0.0747
     30 O          66.6420   92.9879   10.8946 O.2     1  UNL1       -0.1499
     31 O          66.1615   94.7014   13.3096 O.2     1  UNL1       -0.1499
     32 N          67.0195   95.0144   11.3950 N.pl3   1  UNL1       -0.1976
     33 H          67.8794   95.3794   11.7059 H       1  UNL1        0.1753
     34 C          66.3272   95.6281   10.2143 C.ar    1  UNL1        0.1664
     35 C          64.9654   96.2359   10.3758 C.ar    1  UNL1        0.1344
     36 N          64.2732   96.8496    9.1951 N.ar    1  UNL1       -0.2377
     37 C          64.9427   96.8554    7.8528 C.ar    1  UNL1        0.1196
     38 C          66.3044   96.2476    7.6913 C.ar    1  UNL1        0.1210
     39 N          66.9967   95.6340    8.8720 N.ar    1  UNL1       -0.2247
@<TRIPOS>BOND
     1    27    28    1
     2    28    12    1
     3    12    13   ar
     4    13    14   ar
     5    14    19    1
     6    19    20   ar
     7    20    21   ar
     8    21    22   ar
     9    22    23    1
    10    22    24   ar
    11    24    25    1
    12    24    26   ar
    13    14    15   ar
    14    15    16    1
    15    15    17   ar
    16    17    18   ar
    17    18     1    1
    18     1     2   ar
    19     2     3    2
    20     2     4   ar
    21     4     5   ar
    22     5     6   ar
    23     6     7   ar
    24     7     8   ar
    25     8    29    1
    26    29    30    2
    27    29    31    2
    28    29    32    1
    29    32    34    1
    30    34    35   ar
    31    35    36   ar
    32    36    37   ar
    33    37    38   ar
    34    38    39   ar
    35     8     9   ar
    36     9    10   ar
    37    10    11   ar
    38    18    12   ar
    39    11     1   ar
    40    26    19   ar
    41    11     6   ar
    42    39    34   ar
    43    32    33    1
