@<TRIPOS>MOLECULE
*****
 30 34 0 0 0
SMALL
GASTEIGER

@<TRIPOS>ATOM
      1 C          62.1119   85.8410   10.4298 C.ar    1  UNL1        0.0004
      2 C          62.3965   84.5770   11.1855 C.ar    1  UNL1        0.0031
      3 C          63.0205   84.6421   12.5480 C.ar    1  UNL1        0.0370
      4 C          63.3598   85.9712   13.1547 C.ar    1  UNL1        0.1415
      5 C          63.0752   87.2353   12.3991 C.ar    1  UNL1        0.0699
      6 C          62.4512   87.1702   11.0366 C.ar    1  UNL1        0.0061
      7 C          63.3325   88.6527   12.8168 C.ar    1  UNL1        0.1704
      8 N          62.9992   89.8396   11.9622 N.ar    1  UNL1       -0.1273
      9 N          63.3987   91.0766   12.7107 N.ar    1  UNL1       -0.1127
     10 C          63.9790   90.6543   14.0278 C.ar    1  UNL1        0.2224
     11 N          63.9381   89.1562   14.0934 N.ar    1  UNL1       -0.2796
     12 C          64.4358   88.3666   15.2676 C.3     1  UNL1        0.1574
     13 C          64.4510   86.8785   15.4552 C.3     1  UNL1        0.2299
     14 O          63.9721   85.8124   14.5148 O.3     1  UNL1       -0.4733
     15 C          62.2320   84.2072    5.4986 C.3     1  UNL1        0.0521
     16 C          61.5479   84.9591    6.6016 C.ar    1  UNL1        0.0594
     17 C          62.1719   85.0241    7.9642 C.ar    1  UNL1        0.0147
     18 C          61.4879   85.7759    9.0673 C.ar    1  UNL1        0.0027
     19 C          60.1798   86.4628    8.8078 C.ar    1  UNL1        0.0207
     20 C          59.5558   86.3977    7.4454 C.ar    1  UNL1        0.0984
     21 N          60.2399   85.6459    6.3422 N.ar    1  UNL1       -0.2481
     22 N          64.5074   91.5694   15.0925 N.pl3   1  UNL1       -0.2826
     23 H          63.9062   91.9043   15.7965 H       1  UNL1        0.1551
     24 C          65.9517   91.9741   15.0846 C.ar    1  UNL1        0.0513
     25 C          66.5169   92.7590   16.2311 C.ar    1  UNL1        0.0147
     26 C          67.9613   93.1637   16.2231 C.ar    1  UNL1        0.0021
     27 C          68.8403   92.7835   15.0687 C.ar    1  UNL1        0.0115
     28 C          68.2751   91.9986   13.9222 C.ar    1  UNL1        0.0589
     29 CL         69.1541   91.6184   12.7678 Cl      1  UNL1       -0.0822
     30 C          66.8307   91.5939   13.9302 C.ar    1  UNL1        0.0261
@<TRIPOS>BOND
     1    15    16    1
     2    16    17   ar
     3    17    18   ar
     4    18     1    1
     5     1     2   ar
     6     2     3   ar
     7     3     4   ar
     8     4     5   ar
     9     5     6   ar
    10     5     7    1
    11     7     8   ar
    12     8     9   ar
    13     9    10   ar
    14    10    22    1
    15    22    24    1
    16    24    25   ar
    17    25    26   ar
    18    26    27   ar
    19    27    28   ar
    20    28    29    1
    21    28    30   ar
    22    10    11   ar
    23    11    12    1
    24    12    13    1
    25    13    14    1
    26    18    19   ar
    27    19    20   ar
    28    20    21   ar
    29    21    16   ar
    30     6     1   ar
    31    11     7   ar
    32    14     4    1
    33    30    24   ar
    34    22    23    1
@<TRIPOS>MOLECULE
*****
 30 34 0 0 0
SMALL
GASTEIGER

@<TRIPOS>ATOM
      1 C          64.7646   90.3823   14.8451 C.ar    1  UNL1        0.0004
      2 C          63.9182   90.9364   15.9526 C.ar    1  UNL1        0.0031
      3 C          63.1031   90.0121   16.8077 C.ar    1  UNL1        0.0370
      4 C          63.1345   88.5338   16.5554 C.ar    1  UNL1        0.1415
      5 C          63.9809   87.9798   15.4480 C.ar    1  UNL1        0.0699
      6 C          64.7960   88.9040   14.5928 C.ar    1  UNL1        0.0061
      7 C          64.1550   86.5499   15.0296 C.ar    1  UNL1        0.1704
      8 N          65.0386   86.1224   13.8954 N.ar    1  UNL1       -0.1273
      9 N          64.9552   84.6291   13.7802 N.ar    1  UNL1       -0.1127
     10 C          64.0201   84.1338   14.8432 C.ar    1  UNL1        0.2224
     11 N          63.5255   85.3208   15.6154 N.ar    1  UNL1       -0.2796
     12 C          62.5665   85.2181   16.7643 C.3     1  UNL1        0.1574
     13 C          62.0002   86.3191   17.6111 C.3     1  UNL1        0.2299
     14 O          62.2530   87.7948   17.5181 O.3     1  UNL1       -0.4733
     15 C          65.2890   93.2322   10.5319 C.3     1  UNL1        0.0521
     16 C          65.8419   92.7315   11.8332 C.ar    1  UNL1        0.0594
     17 C          65.0268   91.8073   12.6885 C.ar    1  UNL1        0.0147
     18 C          65.5797   91.3066   13.9898 C.ar    1  UNL1        0.0027
     19 C          66.9477   91.7302   14.4360 C.ar    1  UNL1        0.0207
     20 C          67.7628   92.6544   13.5809 C.ar    1  UNL1        0.0984
     21 N          67.2099   93.1551   12.2794 N.ar    1  UNL1       -0.2481
     22 N          63.6453   82.7025   15.0906 N.pl3   1  UNL1       -0.2826
     23 H          63.6136   82.3540   16.0108 H       1  UNL1        0.1551
     24 C          63.3190   81.8023   13.9360 C.ar    1  UNL1        0.0513
     25 C          62.6633   80.4757   14.1814 C.ar    1  UNL1        0.0147
     26 C          62.3370   79.5755   13.0267 C.ar    1  UNL1        0.0021
     27 C          62.6663   80.0019   11.6269 C.ar    1  UNL1        0.0115
     28 C          63.3220   81.3285   11.3815 C.ar    1  UNL1        0.0589
     29 CL         63.6514   81.7549    9.9817 Cl      1  UNL1       -0.0822
     30 C          63.6483   82.2287   12.5362 C.ar    1  UNL1        0.0261
@<TRIPOS>BOND
     1    15    16    1
     2    16    17   ar
     3    17    18   ar
     4    18     1    1
     5     1     2   ar
     6     2     3   ar
     7     3     4   ar
     8     4     5   ar
     9     5     6   ar
    10     5     7    1
    11     7     8   ar
    12     8     9   ar
    13     9    10   ar
    14    10    22    1
    15    22    24    1
    16    24    25   ar
    17    25    26   ar
    18    26    27   ar
    19    27    28   ar
    20    28    29    1
    21    28    30   ar
    22    10    11   ar
    23    11    12    1
    24    12    13    1
    25    13    14    1
    26    18    19   ar
    27    19    20   ar
    28    20    21   ar
    29    21    16   ar
    30     6     1   ar
    31    11     7   ar
    32    14     4    1
    33    30    24   ar
    34    22    23    1
@<TRIPOS>MOLECULE
*****
 30 34 0 0 0
SMALL
GASTEIGER

@<TRIPOS>ATOM
      1 C          64.1088   90.6053   14.0184 C.ar    1  UNL1        0.0004
      2 C          63.7428   91.2525   15.3212 C.ar    1  UNL1        0.0031
      3 C          63.4045   90.4042   16.5111 C.ar    1  UNL1        0.0370
      4 C          63.4322   88.9087   16.3982 C.ar    1  UNL1        0.1415
      5 C          63.7981   88.2615   15.0955 C.ar    1  UNL1        0.0699
      6 C          64.1364   89.1098   13.9056 C.ar    1  UNL1        0.0061
      7 C          63.8860   86.8001   14.7694 C.ar    1  UNL1        0.1704
      8 N          64.2666   86.2768   13.4161 N.ar    1  UNL1       -0.1273
      9 N          64.2455   84.7781   13.4759 N.ar    1  UNL1       -0.1127
     10 C          63.8519   84.3752   14.8661 C.ar    1  UNL1        0.2224
     11 N          63.6297   85.6248   15.6656 N.ar    1  UNL1       -0.2796
     12 C          63.2222   85.6208   17.1091 C.3     1  UNL1        0.1574
     13 C          62.9703   86.7910   18.0131 C.3     1  UNL1        0.2299
     14 O          63.0638   88.2543   17.6967 O.3     1  UNL1       -0.4733
     15 C          66.6205   94.6550   11.9468 C.3     1  UNL1        0.0521
     16 C          65.7030   93.4785   11.7926 C.ar    1  UNL1        0.0594
     17 C          65.3646   92.6302   12.9826 C.ar    1  UNL1        0.0147
     18 C          64.4471   91.4536   12.8284 C.ar    1  UNL1        0.0027
     19 C          63.8679   91.1253   11.4843 C.ar    1  UNL1        0.0207
     20 C          64.2062   91.9735   10.2944 C.ar    1  UNL1        0.0984
     21 N          65.1237   93.1502   10.4485 N.ar    1  UNL1       -0.2481
     22 N          63.7060   82.9694   15.3687 N.pl3   1  UNL1       -0.2826
     23 H          64.0708   82.7209   16.2487 H       1  UNL1        0.1551
     24 C          63.0044   81.9422   14.5305 C.ar    1  UNL1        0.0513
     25 C          63.7516   81.2185   13.4498 C.ar    1  UNL1        0.0147
     26 C          63.0499   80.1913   12.6116 C.ar    1  UNL1        0.0021
     27 C          61.6012   79.8879   12.8541 C.ar    1  UNL1        0.0115
     28 C          60.8539   80.6115   13.9348 C.ar    1  UNL1        0.0589
     29 CL         59.4052   80.3081   14.1774 Cl      1  UNL1       -0.0822
     30 C          61.5556   81.6388   14.7730 C.ar    1  UNL1        0.0261
@<TRIPOS>BOND
     1    15    16    1
     2    16    17   ar
     3    17    18   ar
     4    18     1    1
     5     1     2   ar
     6     2     3   ar
     7     3     4   ar
     8     4     5   ar
     9     5     6   ar
    10     5     7    1
    11     7     8   ar
    12     8     9   ar
    13     9    10   ar
    14    10    22    1
    15    22    24    1
    16    24    25   ar
    17    25    26   ar
    18    26    27   ar
    19    27    28   ar
    20    28    29    1
    21    28    30   ar
    22    10    11   ar
    23    11    12    1
    24    12    13    1
    25    13    14    1
    26    18    19   ar
    27    19    20   ar
    28    20    21   ar
    29    21    16   ar
    30     6     1   ar
    31    11     7   ar
    32    14     4    1
    33    30    24   ar
    34    22    23    1
@<TRIPOS>MOLECULE
*****
 30 34 0 0 0
SMALL
GASTEIGER

@<TRIPOS>ATOM
      1 C          62.5908   85.1701   11.3394 C.ar    1  UNL1        0.0004
      2 C          63.1883   86.1299   12.3252 C.ar    1  UNL1        0.0031
      3 C          62.8714   87.5931   12.2338 C.ar    1  UNL1        0.0370
      4 C          61.9570   88.0966   11.1566 C.ar    1  UNL1        0.1415
      5 C          61.3595   87.1369   10.1708 C.ar    1  UNL1        0.0699
      6 C          61.6764   85.6736   10.2622 C.ar    1  UNL1        0.0061
      7 C          60.4312   87.4262    9.0287 C.ar    1  UNL1        0.1704
      8 N          59.8998   86.3685    8.1073 N.ar    1  UNL1       -0.1273
      9 N          59.0112   87.0355    7.0995 N.ar    1  UNL1       -0.1127
     10 C          58.9935   88.5053    7.3980 C.ar    1  UNL1        0.2224
     11 N          59.8710   88.7469    8.5903 N.ar    1  UNL1       -0.2796
     12 C          60.1009   90.1043    9.1857 C.3     1  UNL1        0.1574
     13 C          60.9476   90.4764   10.3666 C.3     1  UNL1        0.2299
     14 O          61.7737   89.5828   11.2438 O.3     1  UNL1       -0.4733
     15 C          62.3354   80.6624   13.9116 C.3     1  UNL1        0.0521
     16 C          62.7800   81.4529   12.7168 C.ar    1  UNL1        0.0594
     17 C          62.4631   82.9163   12.6255 C.ar    1  UNL1        0.0147
     18 C          62.9077   83.7068   11.4308 C.ar    1  UNL1        0.0027
     19 C          63.6692   83.0340   10.3274 C.ar    1  UNL1        0.0207
     20 C          63.9861   81.5707   10.4187 C.ar    1  UNL1        0.0984
     21 N          63.5415   80.7802   11.6134 N.ar    1  UNL1       -0.2481
     22 N          58.2319   89.5502    6.6376 N.pl3   1  UNL1       -0.2826
     23 H          57.2594   89.6391    6.7627 H       1  UNL1        0.1551
     24 C          58.9518   90.4598    5.6866 C.ar    1  UNL1        0.0513
     25 C          58.2241   91.6059    5.0489 C.ar    1  UNL1        0.0147
     26 C          58.9441   92.5154    4.0978 C.ar    1  UNL1        0.0021
     27 C          60.3918   92.2787    3.7846 C.ar    1  UNL1        0.0115
     28 C          61.1195   91.1326    4.4223 C.ar    1  UNL1        0.0589
     29 CL         62.5672   90.8959    4.1091 Cl      1  UNL1       -0.0822
     30 C          60.3995   90.2231    5.3734 C.ar    1  UNL1        0.0261
@<TRIPOS>BOND
     1    15    16    1
     2    16    17   ar
     3    17    18   ar
     4    18     1    1
     5     1     2   ar
     6     2     3   ar
     7     3     4   ar
     8     4     5   ar
     9     5     6   ar
    10     5     7    1
    11     7     8   ar
    12     8     9   ar
    13     9    10   ar
    14    10    22    1
    15    22    24    1
    16    24    25   ar
    17    25    26   ar
    18    26    27   ar
    19    27    28   ar
    20    28    29    1
    21    28    30   ar
    22    10    11   ar
    23    11    12    1
    24    12    13    1
    25    13    14    1
    26    18    19   ar
    27    19    20   ar
    28    20    21   ar
    29    21    16   ar
    30     6     1   ar
    31    11     7   ar
    32    14     4    1
    33    30    24   ar
    34    22    23    1
@<TRIPOS>MOLECULE
*****
 30 34 0 0 0
SMALL
GASTEIGER

@<TRIPOS>ATOM
      1 C          63.3296   83.5901   13.7422 C.ar    1  UNL1        0.0004
      2 C          63.8857   83.7298   15.1283 C.ar    1  UNL1        0.0031
      3 C          64.2010   85.0901   15.6762 C.ar    1  UNL1        0.0370
      4 C          63.9603   86.3105   14.8381 C.ar    1  UNL1        0.1415
      5 C          63.4042   86.1708   13.4520 C.ar    1  UNL1        0.0699
      6 C          63.0889   84.8106   12.9041 C.ar    1  UNL1        0.0061
      7 C          63.0912   87.2485   12.4568 C.ar    1  UNL1        0.1704
      8 N          62.5335   86.9758   11.0913 N.ar    1  UNL1       -0.1273
      9 N          62.3545   88.2910   10.3925 N.ar    1  UNL1       -0.1127
     10 C          62.8016   89.3765   11.3261 C.ar    1  UNL1        0.2224
     11 N          63.2569   88.7323   12.6020 N.ar    1  UNL1       -0.2796
     12 C          63.7766   89.5047   13.7781 C.3     1  UNL1        0.1574
     13 C          64.2589   88.9842   15.0996 C.3     1  UNL1        0.2299
     14 O          64.3407   87.5626   15.5713 O.3     1  UNL1       -0.4733
     15 C          63.1591   80.2790    9.7412 C.3     1  UNL1        0.0521
     16 C          62.9290   80.5742   11.1937 C.ar    1  UNL1        0.0594
     17 C          63.2443   81.9345   11.7417 C.ar    1  UNL1        0.0147
     18 C          63.0143   82.2298   13.1942 C.ar    1  UNL1        0.0027
     19 C          62.4688   81.1648   14.0988 C.ar    1  UNL1        0.0207
     20 C          62.1535   79.8045   13.5509 C.ar    1  UNL1        0.0984
     21 N          62.3836   79.5093   12.0983 N.ar    1  UNL1       -0.2481
     22 N          62.7947   90.8480   11.0350 N.pl3   1  UNL1       -0.2826
     23 H          61.9803   91.2767   10.6853 H       1  UNL1        0.1551
     24 C          64.0284   91.6663   11.2766 C.ar    1  UNL1        0.0513
     25 C          64.7725   92.2612   10.1180 C.ar    1  UNL1        0.0147
     26 C          66.0063   93.0795   10.3597 C.ar    1  UNL1        0.0021
     27 C          66.4957   93.3028   11.7599 C.ar    1  UNL1        0.0115
     28 C          65.7516   92.7079   12.9185 C.ar    1  UNL1        0.0589
     29 CL         66.2410   92.9312   14.3186 Cl      1  UNL1       -0.0822
     30 C          64.5178   91.8896   12.6767 C.ar    1  UNL1        0.0261
@<TRIPOS>BOND
     1    15    16    1
     2    16    17   ar
     3    17    18   ar
     4    18     1    1
     5     1     2   ar
     6     2     3   ar
     7     3     4   ar
     8     4     5   ar
     9     5     6   ar
    10     5     7    1
    11     7     8   ar
    12     8     9   ar
    13     9    10   ar
    14    10    22    1
    15    22    24    1
    16    24    25   ar
    17    25    26   ar
    18    26    27   ar
    19    27    28   ar
    20    28    29    1
    21    28    30   ar
    22    10    11   ar
    23    11    12    1
    24    12    13    1
    25    13    14    1
    26    18    19   ar
    27    19    20   ar
    28    20    21   ar
    29    21    16   ar
    30     6     1   ar
    31    11     7   ar
    32    14     4    1
    33    30    24   ar
    34    22    23    1
@<TRIPOS>MOLECULE
*****
 30 34 0 0 0
SMALL
GASTEIGER

@<TRIPOS>ATOM
      1 C          63.4682   85.4571   13.6574 C.ar    1  UNL1        0.0004
      2 C          63.8503   85.5836   15.1023 C.ar    1  UNL1        0.0031
      3 C          64.1775   86.9302   15.6764 C.ar    1  UNL1        0.0370
      4 C          64.1226   88.1503   14.8055 C.ar    1  UNL1        0.1415
      5 C          63.7406   88.0238   13.3606 C.ar    1  UNL1        0.0699
      6 C          63.4134   86.6772   12.7865 C.ar    1  UNL1        0.0061
      7 C          63.6253   89.1034   12.3257 C.ar    1  UNL1        0.1704
      8 N          63.2306   88.8446   10.9018 N.ar    1  UNL1       -0.1273
      9 N          63.2251   90.1575   10.1764 N.ar    1  UNL1       -0.1127
     10 C          63.6162   91.2277   11.1518 C.ar    1  UNL1        0.2224
     11 N          63.8636   90.5763   12.4802 N.ar    1  UNL1       -0.2796
     12 C          64.2760   91.3332   13.7077 C.3     1  UNL1        0.1574
     13 C          64.5520   90.8044   15.0839 C.3     1  UNL1        0.2299
     14 O          64.4837   89.3877   15.5725 O.3     1  UNL1       -0.4733
     15 C          61.2608   80.7774   14.1344 C.3     1  UNL1        0.0521
     16 C          62.0373   81.7706   13.3217 C.ar    1  UNL1        0.0594
     17 C          62.3645   83.1173   13.8959 C.ar    1  UNL1        0.0147
     18 C          63.1410   84.1105   13.0832 C.ar    1  UNL1        0.0027
     19 C          63.5904   83.7572   11.6964 C.ar    1  UNL1        0.0207
     20 C          63.2632   82.4106   11.1222 C.ar    1  UNL1        0.0984
     21 N          62.4866   81.4173   11.9349 N.ar    1  UNL1       -0.2481
     22 N          63.7386   92.6923   10.8516 N.pl3   1  UNL1       -0.2826
     23 H          62.9434   93.2713   10.8927 H       1  UNL1        0.1551
     24 C          65.0724   93.2747   10.4888 C.ar    1  UNL1        0.0513
     25 C          65.2455   94.7628   10.4135 C.ar    1  UNL1        0.0147
     26 C          66.5795   95.3452   10.0507 C.ar    1  UNL1        0.0021
     27 C          67.7400   94.4395    9.7631 C.ar    1  UNL1        0.0115
     28 C          67.5669   92.9514    9.8384 C.ar    1  UNL1        0.0589
     29 CL         68.7275   92.0458    9.5508 Cl      1  UNL1       -0.0822
     30 C          66.2330   92.3691   10.2012 C.ar    1  UNL1        0.0261
@<TRIPOS>BOND
     1    15    16    1
     2    16    17   ar
     3    17    18   ar
     4    18     1    1
     5     1     2   ar
     6     2     3   ar
     7     3     4   ar
     8     4     5   ar
     9     5     6   ar
    10     5     7    1
    11     7     8   ar
    12     8     9   ar
    13     9    10   ar
    14    10    22    1
    15    22    24    1
    16    24    25   ar
    17    25    26   ar
    18    26    27   ar
    19    27    28   ar
    20    28    29    1
    21    28    30   ar
    22    10    11   ar
    23    11    12    1
    24    12    13    1
    25    13    14    1
    26    18    19   ar
    27    19    20   ar
    28    20    21   ar
    29    21    16   ar
    30     6     1   ar
    31    11     7   ar
    32    14     4    1
    33    30    24   ar
    34    22    23    1
@<TRIPOS>MOLECULE
*****
 30 34 0 0 0
SMALL
GASTEIGER

@<TRIPOS>ATOM
      1 C          63.1458   83.5813   13.6443 C.ar    1  UNL1        0.0004
      2 C          62.6635   82.8828   14.8810 C.ar    1  UNL1        0.0031
      3 C          62.4754   83.6548   16.1533 C.ar    1  UNL1        0.0370
      4 C          62.7697   85.1253   16.1888 C.ar    1  UNL1        0.1415
      5 C          63.2519   85.8237   14.9520 C.ar    1  UNL1        0.0699
      6 C          63.4400   85.0517   13.6798 C.ar    1  UNL1        0.0061
      7 C          63.6005   87.2713   14.7712 C.ar    1  UNL1        0.1704
      8 N          64.0754   87.8510   13.4718 N.ar    1  UNL1       -0.1273
      9 N          64.3213   89.3160   13.6800 N.ar    1  UNL1       -0.1127
     10 C          63.9984   89.6417   15.1081 C.ar    1  UNL1        0.2224
     11 N          63.5530   88.3782   15.7825 N.ar    1  UNL1       -0.2796
     12 C          63.1451   88.3106   17.2244 C.3     1  UNL1        0.1574
     13 C          62.6840   87.1197   18.0111 C.3     1  UNL1        0.2299
     14 O          62.5169   85.7020   17.5502 O.3     1  UNL1       -0.4733
     15 C          62.6463   79.1724   10.9401 C.3     1  UNL1        0.0521
     16 C          63.0841   80.6048   11.0199 C.ar    1  UNL1        0.0594
     17 C          62.8960   81.3768   12.2922 C.ar    1  UNL1        0.0147
     18 C          63.3338   82.8093   12.3720 C.ar    1  UNL1        0.0027
     19 C          63.9597   83.4698   11.1795 C.ar    1  UNL1        0.0207
     20 C          64.1478   82.6979    9.9072 C.ar    1  UNL1        0.0984
     21 N          63.7100   81.2654    9.8274 N.ar    1  UNL1       -0.2481
     22 N          64.1027   90.9939   15.7492 N.pl3   1  UNL1       -0.2826
     23 H          63.4375   91.2738   16.4188 H       1  UNL1        0.1551
     24 C          65.2206   91.9195   15.3702 C.ar    1  UNL1        0.0513
     25 C          66.2319   92.3342   16.3974 C.ar    1  UNL1        0.0147
     26 C          67.3497   93.2598   16.0183 C.ar    1  UNL1        0.0021
     27 C          67.4562   93.7707   14.6121 C.ar    1  UNL1        0.0115
     28 C          66.4448   93.3560   13.5848 C.ar    1  UNL1        0.0589
     29 CL         66.5513   93.8669   12.1786 Cl      1  UNL1       -0.0822
     30 C          65.3270   92.4304   13.9639 C.ar    1  UNL1        0.0261
@<TRIPOS>BOND
     1    15    16    1
     2    16    17   ar
     3    17    18   ar
     4    18     1    1
     5     1     2   ar
     6     2     3   ar
     7     3     4   ar
     8     4     5   ar
     9     5     6   ar
    10     5     7    1
    11     7     8   ar
    12     8     9   ar
    13     9    10   ar
    14    10    22    1
    15    22    24    1
    16    24    25   ar
    17    25    26   ar
    18    26    27   ar
    19    27    28   ar
    20    28    29    1
    21    28    30   ar
    22    10    11   ar
    23    11    12    1
    24    12    13    1
    25    13    14    1
    26    18    19   ar
    27    19    20   ar
    28    20    21   ar
    29    21    16   ar
    30     6     1   ar
    31    11     7   ar
    32    14     4    1
    33    30    24   ar
    34    22    23    1
