@<TRIPOS>MOLECULE
*****
 24 26 0 0 0
SMALL
GASTEIGER

@<TRIPOS>ATOM
      1 N          66.1254   93.1926   13.0426 N.ar    1  UNL1       -0.3165
      2 C          67.0039   93.1385   14.2572 C.ar    1  UNL1        0.0779
      3 C          66.6735   91.8855   15.0127 C.ar    1  UNL1        0.0392
      4 C          65.5908   91.1652   14.2651 C.ar    1  UNL1        0.0985
      5 N          64.8697   89.8781   14.5357 N.ar    1  UNL1       -0.2423
      6 C          63.8098   89.3989   13.5887 C.ar    1  UNL1        0.0994
      7 C          63.4710   90.2067   12.3710 C.ar    1  UNL1        0.0266
      8 C          64.1922   91.4938   12.1004 C.ar    1  UNL1        0.0208
      9 C          65.2521   91.9731   13.0474 C.ar    1  UNL1        0.0782
     10 C          62.4110   89.7274   11.4240 C.ar    1  UNL1        0.0309
     11 C          61.3304   90.5683   10.8114 C.ar    1  UNL1        0.0070
     12 C          60.4971   89.6838    9.9321 C.ar    1  UNL1        0.0109
     13 C          61.0627   88.2962   10.0013 C.ar    1  UNL1        0.1009
     14 S          62.2456   88.3232   10.9233 S.2     1  UNL1       -0.0831
     15 C          60.5377   87.0928    9.2758 C.3     1  UNL1        0.4241
     16 F          60.0126   85.8895    8.5503 F       1  UNL1       -0.1654
     17 F          60.3293   87.9255    8.0456 F       1  UNL1       -0.1654
     18 F          60.7461   86.2602   10.5060 F       1  UNL1       -0.1654
     19 C          66.1210   94.2761   12.0053 C.3     1  UNL1        0.1920
     20 C          67.4181   94.8753    8.3028 C.3     1  UNL1        0.1150
     21 N          66.6961   95.0780    9.6018 N.am    1  UNL1       -0.2744
     22 C          65.8270   96.2849    9.7966 C.3     1  UNL1        0.1150
     23 C          66.8431   94.0735   10.7061 C.2     1  UNL1        0.2488
     24 O          67.7121   92.8665   10.5113 O.2     1  UNL1       -0.2728
@<TRIPOS>BOND
     1    20    21    1
     2    21    22    1
     3    21    23   am
     4    23    24    2
     5    23    19    1
     6    19     1    1
     7     1     2   ar
     8     2     3   ar
     9     3     4   ar
    10     4     5   ar
    11     5     6   ar
    12     6     7   ar
    13     7    10    1
    14    10    11   ar
    15    11    12   ar
    16    12    13   ar
    17    13    15    1
    18    15    16    1
    19    15    17    1
    20    15    18    1
    21    13    14   ar
    22     7     8   ar
    23     8     9   ar
    24     9     1   ar
    25     9     4   ar
    26    14    10   ar
@<TRIPOS>MOLECULE
*****
 24 26 0 0 0
SMALL
GASTEIGER

@<TRIPOS>ATOM
      1 N          63.9369   86.3111   15.3893 N.ar    1  UNL1       -0.3165
      2 C          63.4216   85.9917   16.7613 C.ar    1  UNL1        0.0779
      3 C          63.0156   87.2792   17.4152 C.ar    1  UNL1        0.0392
      4 C          63.2801   88.3942   16.4474 C.ar    1  UNL1        0.0985
      5 N          63.0759   89.8771   16.5445 N.ar    1  UNL1       -0.2423
      6 C          63.4412   90.7616   15.3894 C.ar    1  UNL1        0.0994
      7 C          64.0106   90.1633   14.1373 C.ar    1  UNL1        0.0266
      8 C          64.2147   88.6804   14.0402 C.ar    1  UNL1        0.0208
      9 C          63.8495   87.7959   15.1953 C.ar    1  UNL1        0.0782
     10 C          64.3759   91.0479   12.9822 C.ar    1  UNL1        0.0309
     11 C          63.7618   91.0102   11.6142 C.ar    1  UNL1        0.0070
     12 C          64.4257   92.0645   10.7789 C.ar    1  UNL1        0.0109
     13 C          65.4501   92.7537   11.6307 C.ar    1  UNL1        0.1009
     14 S          65.4193   92.1254   12.9924 S.2     1  UNL1       -0.0831
     15 C          66.3478   93.8744   11.1969 C.3     1  UNL1        0.4241
     16 F          67.2454   94.9952   10.7631 F       1  UNL1       -0.1654
     17 F          66.1701   94.5337   12.5325 F       1  UNL1       -0.1654
     18 F          66.5254   93.2152    9.8613 F       1  UNL1       -0.1654
     19 C          64.4497   85.3197   14.3872 C.3     1  UNL1        0.1920
     20 C          62.3598   82.2187   13.0583 C.3     1  UNL1        0.1150
     21 N          62.9698   83.5866   13.1396 N.am    1  UNL1       -0.2744
     22 C          62.7098   84.5895   12.0549 C.3     1  UNL1        0.1150
     23 C          63.8397   83.9517   14.3058 C.2     1  UNL1        0.2488
     24 O          64.0997   82.9488   15.3905 O.2     1  UNL1       -0.2728
@<TRIPOS>BOND
     1    20    21    1
     2    21    22    1
     3    21    23   am
     4    23    24    2
     5    23    19    1
     6    19     1    1
     7     1     2   ar
     8     2     3   ar
     9     3     4   ar
    10     4     5   ar
    11     5     6   ar
    12     6     7   ar
    13     7    10    1
    14    10    11   ar
    15    11    12   ar
    16    12    13   ar
    17    13    15    1
    18    15    16    1
    19    15    17    1
    20    15    18    1
    21    13    14   ar
    22     7     8   ar
    23     8     9   ar
    24     9     1   ar
    25     9     4   ar
    26    14    10   ar
@<TRIPOS>MOLECULE
*****
 24 26 0 0 0
SMALL
GASTEIGER

@<TRIPOS>ATOM
      1 N          63.0655   86.1131   12.3993 N.ar    1  UNL1       -0.3165
      2 C          62.2669   85.8005   11.1687 C.ar    1  UNL1        0.0779
      3 C          61.9126   87.0978   10.5042 C.ar    1  UNL1        0.0392
      4 C          62.4922   88.2121   11.3242 C.ar    1  UNL1        0.0985
      5 N          62.4631   89.7023   11.1557 N.ar    1  UNL1       -0.2423
      6 C          63.1466   90.5839   12.1585 C.ar    1  UNL1        0.0994
      7 C          63.8592   89.9753   13.3297 C.ar    1  UNL1        0.0266
      8 C          63.8883   88.4851   13.4982 C.ar    1  UNL1        0.0208
      9 C          63.2047   87.6035   12.4955 C.ar    1  UNL1        0.0782
     10 C          64.5428   90.8570   14.3325 C.ar    1  UNL1        0.0309
     11 C          64.0566   91.1564   15.7196 C.ar    1  UNL1        0.0070
     12 C          65.0458   92.0784   16.3686 C.ar    1  UNL1        0.0109
     13 C          66.1434   92.3489   15.3826 C.ar    1  UNL1        0.1009
     14 S          65.8325   91.5940   14.1242 S.2     1  UNL1       -0.0831
     15 C          67.3415   93.2212   15.6143 C.3     1  UNL1        0.4241
     16 F          68.5396   94.0934   15.8460 F       1  UNL1       -0.1654
     17 F          67.8248   92.2758   16.6739 F       1  UNL1       -0.1654
     18 F          66.8582   94.1665   14.5547 F       1  UNL1       -0.1654
     19 C          63.6265   85.1111   13.3645 C.3     1  UNL1        0.1920
     20 C          61.8035   81.6964   14.2402 C.3     1  UNL1        0.1150
     21 N          62.7120   82.6885   13.5766 N.am    1  UNL1       -0.2744
     22 C          63.6144   82.2502   12.4615 C.3     1  UNL1        0.1150
     23 C          62.7180   84.1189   14.0281 C.2     1  UNL1        0.2488
     24 O          61.8156   84.5572   15.1432 O.2     1  UNL1       -0.2728
@<TRIPOS>BOND
     1    20    21    1
     2    21    22    1
     3    21    23   am
     4    23    24    2
     5    23    19    1
     6    19     1    1
     7     1     2   ar
     8     2     3   ar
     9     3     4   ar
    10     4     5   ar
    11     5     6   ar
    12     6     7   ar
    13     7    10    1
    14    10    11   ar
    15    11    12   ar
    16    12    13   ar
    17    13    15    1
    18    15    16    1
    19    15    17    1
    20    15    18    1
    21    13    14   ar
    22     7     8   ar
    23     8     9   ar
    24     9     1   ar
    25     9     4   ar
    26    14    10   ar
@<TRIPOS>MOLECULE
*****
 24 26 0 0 0
SMALL
GASTEIGER

@<TRIPOS>ATOM
      1 N          61.8082   89.7505   11.5878 N.ar    1  UNL1       -0.3165
      2 C          60.8734   90.6644   10.8525 C.ar    1  UNL1        0.0779
      3 C          60.1985   89.8681    9.7753 C.ar    1  UNL1        0.0392
      4 C          60.7163   88.4620    9.8449 C.ar    1  UNL1        0.0985
      5 N          60.4103   87.2384    9.0329 N.ar    1  UNL1       -0.2423
      6 C          61.0993   85.9422    9.3412 C.ar    1  UNL1        0.0994
      7 C          62.0942   85.8696   10.4614 C.ar    1  UNL1        0.0266
      8 C          62.4001   87.0931   11.2734 C.ar    1  UNL1        0.0208
      9 C          61.7112   88.3893   10.9651 C.ar    1  UNL1        0.0782
     10 C          62.7832   84.5732   10.7697 C.ar    1  UNL1        0.0309
     11 C          63.6921   83.8166    9.8469 C.ar    1  UNL1        0.0070
     12 C          64.1549   82.5818   10.5616 C.ar    1  UNL1        0.0109
     13 C          63.5320   82.5752   11.9263 C.ar    1  UNL1        0.1009
     14 S          62.6843   83.8060   12.0548 S.2     1  UNL1       -0.0831
     15 C          63.7234   81.5227   12.9777 C.3     1  UNL1        0.4241
     16 F          63.9147   80.4701   14.0292 F       1  UNL1       -0.1654
     17 F          64.4069   82.5264   13.8582 F       1  UNL1       -0.1654
     18 F          63.0398   80.5189   12.0972 F       1  UNL1       -0.1654
     19 C          62.6861   90.1309   12.7431 C.3     1  UNL1        0.1920
     20 C          65.9880   92.2189   13.4415 C.3     1  UNL1        0.1150
     21 N          64.7803   91.3588   13.6687 N.am    1  UNL1       -0.2744
     22 C          64.4590   90.8665   15.0487 C.3     1  UNL1        0.1150
     23 C          63.8939   90.9911   12.5159 C.2     1  UNL1        0.2488
     24 O          64.2152   91.4834   11.1359 O.2     1  UNL1       -0.2728
@<TRIPOS>BOND
     1    20    21    1
     2    21    22    1
     3    21    23   am
     4    23    24    2
     5    23    19    1
     6    19     1    1
     7     1     2   ar
     8     2     3   ar
     9     3     4   ar
    10     4     5   ar
    11     5     6   ar
    12     6     7   ar
    13     7    10    1
    14    10    11   ar
    15    11    12   ar
    16    12    13   ar
    17    13    15    1
    18    15    16    1
    19    15    17    1
    20    15    18    1
    21    13    14   ar
    22     7     8   ar
    23     8     9   ar
    24     9     1   ar
    25     9     4   ar
    26    14    10   ar
@<TRIPOS>MOLECULE
*****
 24 26 0 0 0
SMALL
GASTEIGER

@<TRIPOS>ATOM
      1 N          61.6600   86.3412    9.7017 N.ar    1  UNL1       -0.3165
      2 C          60.4645   86.3566    8.7959 C.ar    1  UNL1        0.0779
      3 C          59.8577   87.7272    8.8527 C.ar    1  UNL1        0.0392
      4 C          60.6781   88.5589    9.7936 C.ar    1  UNL1        0.0985
      5 N          60.5549   89.9855   10.2403 N.ar    1  UNL1       -0.2423
      6 C          61.5455   90.5554   11.2117 C.ar    1  UNL1        0.0994
      7 C          62.6594   89.6988   11.7365 C.ar    1  UNL1        0.0266
      8 C          62.7827   88.2722   11.2898 C.ar    1  UNL1        0.0208
      9 C          61.7920   87.7022   10.3183 C.ar    1  UNL1        0.0782
     10 C          63.6501   90.2688   12.7080 C.ar    1  UNL1        0.0309
     11 C          64.1020   89.6259   13.9856 C.ar    1  UNL1        0.0070
     12 C          65.0939   90.5415   14.6397 C.ar    1  UNL1        0.0109
     13 C          65.2550   91.7503   13.7662 C.ar    1  UNL1        0.1009
     14 S          64.3627   91.5817   12.5723 S.2     1  UNL1       -0.0831
     15 C          66.1512   92.9219   14.0387 C.3     1  UNL1        0.4241
     16 F          67.0473   94.0935   14.3113 F       1  UNL1       -0.1654
     17 F          65.9753   92.7133   15.5137 F       1  UNL1       -0.1654
     18 F          66.3270   93.1305   12.5637 F       1  UNL1       -0.1654
     19 C          62.5646   85.1703    9.9478 C.3     1  UNL1        0.1920
     20 C          63.5548   82.7238   12.9117 C.3     1  UNL1        0.1150
     21 N          63.4559   83.3195   11.5386 N.am    1  UNL1       -0.2744
     22 C          64.1493   82.6604   10.3833 C.3     1  UNL1        0.1150
     23 C          62.6636   84.5744   11.3209 C.2     1  UNL1        0.2488
     24 O          61.9702   85.2335   12.4762 O.2     1  UNL1       -0.2728
@<TRIPOS>BOND
     1    20    21    1
     2    21    22    1
     3    21    23   am
     4    23    24    2
     5    23    19    1
     6    19     1    1
     7     1     2   ar
     8     2     3   ar
     9     3     4   ar
    10     4     5   ar
    11     5     6   ar
    12     6     7   ar
    13     7    10    1
    14    10    11   ar
    15    11    12   ar
    16    12    13   ar
    17    13    15    1
    18    15    16    1
    19    15    17    1
    20    15    18    1
    21    13    14   ar
    22     7     8   ar
    23     8     9   ar
    24     9     1   ar
    25     9     4   ar
    26    14    10   ar
@<TRIPOS>MOLECULE
*****
 24 26 0 0 0
SMALL
GASTEIGER

@<TRIPOS>ATOM
      1 N          63.7141   85.9014   15.5109 N.ar    1  UNL1       -0.3165
      2 C          62.8805   85.4533   16.6746 C.ar    1  UNL1        0.0779
      3 C          62.4851   86.6703   17.4573 C.ar    1  UNL1        0.0392
      4 C          63.0743   87.8705   16.7773 C.ar    1  UNL1        0.0985
      5 N          63.0174   89.3346   17.0981 N.ar    1  UNL1       -0.2423
      6 C          63.7200   90.3235   16.2160 C.ar    1  UNL1        0.0994
      7 C          64.4796   89.8483   15.0130 C.ar    1  UNL1        0.0266
      8 C          64.5365   88.3842   14.6921 C.ar    1  UNL1        0.0208
      9 C          63.8339   87.3952   15.5743 C.ar    1  UNL1        0.0782
     10 C          65.1822   90.8373   14.1308 C.ar    1  UNL1        0.0309
     11 C          66.6053   91.2899   14.2724 C.ar    1  UNL1        0.0070
     12 C          66.8878   92.2796   13.1813 C.ar    1  UNL1        0.0109
     13 C          65.6392   92.4388   12.3653 C.ar    1  UNL1        0.1009
     14 S          64.5852   91.5475   12.9521 S.2     1  UNL1       -0.0831
     15 C          65.4738   93.3325   11.1720 C.3     1  UNL1        0.4241
     16 F          65.3084   94.2262    9.9786 F       1  UNL1       -0.1654
     17 F          64.6184   92.2923   10.5115 F       1  UNL1       -0.1654
     18 F          66.3292   94.3728   11.8324 F       1  UNL1       -0.1654
     19 C          64.3213   85.0118   14.4669 C.3     1  UNL1        0.1920
     20 C          63.1023   83.4796   11.0148 C.3     1  UNL1        0.1150
     21 N          63.7441   83.5971   12.3655 N.am    1  UNL1       -0.2744
     22 C          64.4506   82.4177   12.9654 C.3     1  UNL1        0.1150
     23 C          63.6795   84.8941   13.1161 C.2     1  UNL1        0.2488
     24 O          62.9731   86.0735   12.5162 O.2     1  UNL1       -0.2728
@<TRIPOS>BOND
     1    20    21    1
     2    21    22    1
     3    21    23   am
     4    23    24    2
     5    23    19    1
     6    19     1    1
     7     1     2   ar
     8     2     3   ar
     9     3     4   ar
    10     4     5   ar
    11     5     6   ar
    12     6     7   ar
    13     7    10    1
    14    10    11   ar
    15    11    12   ar
    16    12    13   ar
    17    13    15    1
    18    15    16    1
    19    15    17    1
    20    15    18    1
    21    13    14   ar
    22     7     8   ar
    23     8     9   ar
    24     9     1   ar
    25     9     4   ar
    26    14    10   ar
@<TRIPOS>MOLECULE
*****
 24 26 0 0 0
SMALL
GASTEIGER

@<TRIPOS>ATOM
      1 N          62.4802   86.9640   10.9608 N.ar    1  UNL1       -0.3165
      2 C          62.2990   85.4757   10.9145 C.ar    1  UNL1        0.0779
      3 C          62.8068   84.9066   12.2061 C.ar    1  UNL1        0.0392
      4 C          63.3019   86.0431   13.0506 C.ar    1  UNL1        0.0985
      5 N          63.9104   86.0844   14.4210 N.ar    1  UNL1       -0.2423
      6 C          64.3171   87.3973   15.0217 C.ar    1  UNL1        0.0994
      7 C          64.1152   88.6689   14.2521 C.ar    1  UNL1        0.0266
      8 C          63.5067   88.6276   12.8817 C.ar    1  UNL1        0.0208
      9 C          63.1000   87.3147   12.2810 C.ar    1  UNL1        0.0782
     10 C          64.5219   89.9818   14.8528 C.ar    1  UNL1        0.0309
     11 C          63.7685   90.7414   15.9042 C.ar    1  UNL1        0.0070
     12 C          64.5343   91.9947   16.2089 C.ar    1  UNL1        0.0109
     13 C          65.7611   92.0096   15.3458 C.ar    1  UNL1        0.1009
     14 S          65.7534   90.7656   14.5078 S.2     1  UNL1       -0.0831
     15 C          66.8112   93.0805   15.3246 C.3     1  UNL1        0.4241
     16 F          67.8613   94.1514   15.3034 F       1  UNL1       -0.1654
     17 F          66.1755   93.6797   14.1052 F       1  UNL1       -0.1654
     18 F          67.4469   92.4813   16.5440 F       1  UNL1       -0.1654
     19 C          62.1071   87.9317    9.8772 C.3     1  UNL1        0.1920
     20 C          58.8336   87.0493    7.8144 C.3     1  UNL1        0.1150
     21 N          60.2433   87.0014    8.3244 N.am    1  UNL1       -0.2744
     22 C          61.1992   85.9754    7.7918 C.3     1  UNL1        0.1150
     23 C          60.6972   87.9795    9.3671 C.2     1  UNL1        0.2488
     24 O          59.7414   89.0055    9.8997 O.2     1  UNL1       -0.2728
@<TRIPOS>BOND
     1    20    21    1
     2    21    22    1
     3    21    23   am
     4    23    24    2
     5    23    19    1
     6    19     1    1
     7     1     2   ar
     8     2     3   ar
     9     3     4   ar
    10     4     5   ar
    11     5     6   ar
    12     6     7   ar
    13     7    10    1
    14    10    11   ar
    15    11    12   ar
    16    12    13   ar
    17    13    15    1
    18    15    16    1
    19    15    17    1
    20    15    18    1
    21    13    14   ar
    22     7     8   ar
    23     8     9   ar
    24     9     1   ar
    25     9     4   ar
    26    14    10   ar
@<TRIPOS>MOLECULE
*****
 24 26 0 0 0
SMALL
GASTEIGER

@<TRIPOS>ATOM
      1 N          62.4380   87.1733   10.9263 N.ar    1  UNL1       -0.3165
      2 C          62.2595   85.6868   10.8332 C.ar    1  UNL1        0.0779
      3 C          62.8046   85.0750   12.0895 C.ar    1  UNL1        0.0392
      4 C          63.3200   86.1832   12.9591 C.ar    1  UNL1        0.0985
      5 N          63.9664   86.1790   14.3127 N.ar    1  UNL1       -0.2423
      6 C          64.3862   87.4716   14.9473 C.ar    1  UNL1        0.0994
      7 C          64.1596   88.7685   14.2284 C.ar    1  UNL1        0.0266
      8 C          63.5132   88.7727   12.8749 C.ar    1  UNL1        0.0208
      9 C          63.0935   87.4800   12.2402 C.ar    1  UNL1        0.0782
     10 C          64.5794   90.0611   14.8631 C.ar    1  UNL1        0.0309
     11 C          63.8130   90.8220   15.9042 C.ar    1  UNL1        0.0070
     12 C          64.5991   92.0510   16.2527 C.ar    1  UNL1        0.0109
     13 C          65.8515   92.0497   15.4271 C.ar    1  UNL1        0.1009
     14 S          65.8393   90.8199   14.5683 S.2     1  UNL1       -0.0831
     15 C          66.9273   93.0947   15.4553 C.3     1  UNL1        0.4241
     16 F          68.0030   94.1397   15.4835 F       1  UNL1       -0.1654
     17 F          66.2476   93.8246   14.3348 F       1  UNL1       -0.1654
     18 F          67.6069   92.3648   16.5757 F       1  UNL1       -0.1654
     19 C          62.0323   88.1768    9.8879 C.3     1  UNL1        0.1920
     20 C          59.5352   90.8392   11.4455 C.3     1  UNL1        0.1150
     21 N          60.1268   89.5255   11.0282 N.am    1  UNL1       -0.2744
     22 C          59.4047   88.2468   11.3339 C.3     1  UNL1        0.1150
     23 C          61.4406   89.4905   10.3052 C.2     1  UNL1        0.2488
     24 O          62.1627   90.7693    9.9996 O.2     1  UNL1       -0.2728
@<TRIPOS>BOND
     1    20    21    1
     2    21    22    1
     3    21    23   am
     4    23    24    2
     5    23    19    1
     6    19     1    1
     7     1     2   ar
     8     2     3   ar
     9     3     4   ar
    10     4     5   ar
    11     5     6   ar
    12     6     7   ar
    13     7    10    1
    14    10    11   ar
    15    11    12   ar
    16    12    13   ar
    17    13    15    1
    18    15    16    1
    19    15    17    1
    20    15    18    1
    21    13    14   ar
    22     7     8   ar
    23     8     9   ar
    24     9     1   ar
    25     9     4   ar
    26    14    10   ar
@<TRIPOS>MOLECULE
*****
 24 26 0 0 0
SMALL
GASTEIGER

@<TRIPOS>ATOM
      1 N          60.0745   89.3879    9.1920 N.ar    1  UNL1       -0.3165
      2 C          59.3274   89.6464    7.9173 C.ar    1  UNL1        0.0779
      3 C          59.4080   88.4087    7.0738 C.ar    1  UNL1        0.0392
      4 C          60.2049   87.3853    7.8272 C.ar    1  UNL1        0.0985
      5 N          60.6086   85.9805    7.4902 N.ar    1  UNL1       -0.2423
      6 C          61.4243   85.1809    8.4625 C.ar    1  UNL1        0.0994
      7 C          61.8362   85.7862    9.7717 C.ar    1  UNL1        0.0266
      8 C          61.4325   87.1910   10.1086 C.ar    1  UNL1        0.0208
      9 C          60.6168   87.9905    9.1363 C.ar    1  UNL1        0.0782
     10 C          62.6520   84.9866   10.7440 C.ar    1  UNL1        0.0309
     11 C          63.5969   83.8745   10.3968 C.ar    1  UNL1        0.0070
     12 C          64.1949   83.3592   11.6723 C.ar    1  UNL1        0.0109
     13 C          63.6196   84.1529   12.8078 C.ar    1  UNL1        0.1009
     14 S          62.6660   85.1586   12.2340 S.2     1  UNL1       -0.0831
     15 C          63.9413   83.9725   14.2617 C.3     1  UNL1        0.4241
     16 F          64.2631   83.7920   15.7157 F       1  UNL1       -0.1654
     17 F          62.5218   83.5658   14.5254 F       1  UNL1       -0.1654
     18 F          65.3609   84.3791   13.9980 F       1  UNL1       -0.1654
     19 C          60.2488   90.3568   10.3238 C.3     1  UNL1        0.1920
     20 C          63.3311   89.8392   12.7695 C.3     1  UNL1        0.1150
     21 N          62.5281   90.2302   11.5645 N.am    1  UNL1       -0.2744
     22 C          63.2011   90.8855   10.3950 C.3     1  UNL1        0.1150
     23 C          61.0520   89.9658   11.5289 C.2     1  UNL1        0.2488
     24 O          60.3790   89.3105   12.6984 O.2     1  UNL1       -0.2728
@<TRIPOS>BOND
     1    20    21    1
     2    21    22    1
     3    21    23   am
     4    23    24    2
     5    23    19    1
     6    19     1    1
     7     1     2   ar
     8     2     3   ar
     9     3     4   ar
    10     4     5   ar
    11     5     6   ar
    12     6     7   ar
    13     7    10    1
    14    10    11   ar
    15    11    12   ar
    16    12    13   ar
    17    13    15    1
    18    15    16    1
    19    15    17    1
    20    15    18    1
    21    13    14   ar
    22     7     8   ar
    23     8     9   ar
    24     9     1   ar
    25     9     4   ar
    26    14    10   ar
