@<TRIPOS>MOLECULE
*****
 33 35 0 0 0
SMALL
GASTEIGER

@<TRIPOS>ATOM
      1 N          63.8013   86.8372   13.9495 N.pl3   1  UNL1       -0.2916
      2 C          64.5331   87.7821   14.8560 C.3     1  UNL1        0.1030
      3 C          64.1880   88.9229   13.9453 C.3     1  UNL1        0.1174
      4 C          63.4563   87.9781   13.0388 C.3     1  UNL1        0.1030
      5 C          62.9810   82.4126   13.9584 C.ar    1  UNL1        0.0900
      6 C          62.6673   83.2360   15.1723 C.ar    1  UNL1        0.0207
      7 C          62.9407   84.7108   15.1693 C.ar    1  UNL1        0.1001
      8 C          63.5279   85.3623   13.9525 C.ar    1  UNL1        0.1409
      9 N          63.8417   84.5389   12.7386 N.ar    1  UNL1       -0.2341
     10 C          63.5683   83.0640   12.7416 C.ar    1  UNL1        0.0670
     11 C          63.8821   82.2406   11.5277 C.3     1  UNL1        0.0524
     12 C          62.7076   80.9377   13.9614 C.2     1  UNL1        0.3424
     13 O          63.7625   79.9803   14.4310 O.2     1  UNL1       -0.2449
     14 O          61.3793   80.4202   13.4947 O.3     1  UNL1       -0.4454
     15 C          59.0076   79.7944   14.3510 C.3     1  UNL1        0.0513
     16 C          60.1290   80.7844   14.2391 C.3     1  UNL1        0.2089
     17 C          62.6269   85.5342   16.3833 C.1     1  UNL1        0.1032
     18 N          62.3130   86.3576   17.5971 N.1     1  UNL1       -0.1907
     19 C          64.4614   90.3978   13.9423 C.2     1  UNL1        0.2435
     20 O          63.6770   91.3078   14.8404 O.2     1  UNL1       -0.2734
     21 N          65.5192   90.9626   13.0413 N.am    1  UNL1       -0.1884
     22 H          66.0341   90.3654   12.4519 H       1  UNL1        0.1762
     23 S          65.7927   92.4375   13.0383 S.O2    1  UNL1        0.0602
     24 O          66.9569   92.2235   13.9597 O.2     1  UNL1       -0.1541
     25 O          64.6285   92.6515   12.1170 O.2     1  UNL1       -0.1541
     26 C          66.0661   93.9124   13.0354 C.3     1  UNL1        0.1988
     27 C          66.4110   94.6086   11.7523 C.ar    1  UNL1        0.0034
     28 C          66.0769   96.0599   11.5732 C.ar    1  UNL1       -0.0002
     29 C          66.4219   96.7562   10.2902 C.ar    1  UNL1        0.0294
     30 C          67.1010   96.0011    9.1862 C.ar    1  UNL1        0.1401
     31 F          67.4459   96.6973    7.9032 F       1  UNL1       -0.2042
     32 C          67.4351   94.5498    9.3653 C.ar    1  UNL1        0.0294
     33 C          67.0901   93.8536   10.6484 C.ar    1  UNL1       -0.0002
@<TRIPOS>BOND
     1    15    16    1
     2    16    14    1
     3    14    12    1
     4    12    13    2
     5    12     5    1
     6     5     6   ar
     7     6     7   ar
     8     7    17    1
     9    17    18    3
    10     7     8   ar
    11     8     1    1
    12     1     2    1
    13     2     3    1
    14     3    19    1
    15    19    20    2
    16    19    21   am
    17    21    23    1
    18    23    24    2
    19    23    25    2
    20    23    26    1
    21    26    27    1
    22    27    28   ar
    23    28    29   ar
    24    29    30   ar
    25    30    31    1
    26    30    32   ar
    27    32    33   ar
    28     3     4    1
    29     8     9   ar
    30     9    10   ar
    31    10    11    1
    32    10     5   ar
    33     4     1    1
    34    33    27   ar
    35    21    22    1
@<TRIPOS>MOLECULE
*****
 33 35 0 0 0
SMALL
GASTEIGER

@<TRIPOS>ATOM
      1 N          64.6852   90.1918   13.4741 N.pl3   1  UNL1       -0.2916
      2 C          63.8485   89.0824   12.9090 C.3     1  UNL1        0.1030
      3 C          64.0887   88.2706   14.1473 C.3     1  UNL1        0.1174
      4 C          64.9254   89.3800   14.7124 C.3     1  UNL1        0.1030
      5 C          65.9506   94.2672   12.0459 C.ar    1  UNL1        0.0900
      6 C          65.0585   93.4166   11.1913 C.ar    1  UNL1        0.0207
      7 C          64.6366   92.0581   11.6673 C.ar    1  UNL1        0.1001
      8 C          65.1070   91.5503   12.9980 C.ar    1  UNL1        0.1409
      9 N          65.9992   92.4009   13.8526 N.ar    1  UNL1       -0.2341
     10 C          66.4210   93.7593   13.3766 C.ar    1  UNL1        0.0670
     11 C          67.3133   94.6099   14.2313 C.3     1  UNL1        0.0524
     12 C          66.3725   95.6257   11.5698 C.2     1  UNL1        0.3424
     13 O          65.7895   96.8557   12.2000 O.2     1  UNL1       -0.2449
     14 O          67.3772   95.7541   10.4635 O.3     1  UNL1       -0.4454
     15 C          68.1923   93.5509    9.3537 C.3     1  UNL1        0.0513
     16 C          67.3521   94.7929    9.3122 C.3     1  UNL1        0.2089
     17 C          63.7444   91.2075   10.8126 C.1     1  UNL1        0.1032
     18 N          62.8522   90.3569    9.9580 N.1     1  UNL1       -0.1907
     19 C          63.6669   86.9122   14.6234 C.2     1  UNL1        0.2435
     20 O          63.2607   86.7112   16.0533 O.2     1  UNL1       -0.2734
     21 N          63.6512   85.7546   13.6696 N.am    1  UNL1       -0.1884
     22 H          63.9178   85.8865   12.7311 H       1  UNL1        0.1762
     23 S          63.2294   84.3962   14.1456 S.O2    1  UNL1        0.0602
     24 O          61.7916   84.7701   13.9387 O.2     1  UNL1       -0.1541
     25 O          64.6672   84.0222   14.3525 O.2     1  UNL1       -0.1541
     26 C          62.8076   83.0377   14.6217 C.3     1  UNL1        0.1988
     27 C          62.7492   81.8899   13.6578 C.ar    1  UNL1        0.0034
     28 C          62.3533   80.5256   14.1393 C.ar    1  UNL1       -0.0002
     29 C          62.2949   79.3778   13.1754 C.ar    1  UNL1        0.0294
     30 C          62.6325   79.5943   11.7300 C.ar    1  UNL1        0.1401
     31 F          62.5742   78.4465   10.7661 F       1  UNL1       -0.2042
     32 C          63.0285   80.9586   11.2485 C.ar    1  UNL1        0.0294
     33 C          63.0869   82.1064   12.2125 C.ar    1  UNL1       -0.0002
@<TRIPOS>BOND
     1    15    16    1
     2    16    14    1
     3    14    12    1
     4    12    13    2
     5    12     5    1
     6     5     6   ar
     7     6     7   ar
     8     7    17    1
     9    17    18    3
    10     7     8   ar
    11     8     1    1
    12     1     2    1
    13     2     3    1
    14     3    19    1
    15    19    20    2
    16    19    21   am
    17    21    23    1
    18    23    24    2
    19    23    25    2
    20    23    26    1
    21    26    27    1
    22    27    28   ar
    23    28    29   ar
    24    29    30   ar
    25    30    31    1
    26    30    32   ar
    27    32    33   ar
    28     3     4    1
    29     8     9   ar
    30     9    10   ar
    31    10    11    1
    32    10     5   ar
    33     4     1    1
    34    33    27   ar
    35    21    22    1
