@<TRIPOS>MOLECULE
*****
 31 34 0 0 0
SMALL
GASTEIGER

@<TRIPOS>ATOM
      1 N          63.1348   89.8055   11.6890 N.pl3   1  UNL1       -0.2740
      2 C          63.8483   91.0367   11.2148 C.3     1  UNL1        0.1079
      3 C          64.5705   91.6339   12.3861 C.3     1  UNL1        0.1498
      4 C          65.4369   92.8514   12.5165 C.2     1  UNL1        0.2919
      5 O          65.7041   93.7137   11.3185 O.2     1  UNL1       -0.2563
      6 N          66.0362   93.2066   13.8450 N.am    1  UNL1       -0.1449
      7 C          66.9026   94.4242   13.9754 C.3     1  UNL1        0.2159
      8 C          65.7690   92.3444   15.0429 C.2     1  UNL1        0.3728
      9 N          66.3683   92.6997   16.3714 N.2     1  UNL1       -0.1329
     10 N          64.9027   91.1269   14.9125 N.pl3   1  UNL1       -0.2247
     11 C          64.3034   90.7717   13.5841 C.3     1  UNL1        0.1559
     12 C          63.4161   89.6416   13.1533 C.3     1  UNL1        0.1327
     13 H          66.9369   93.4988   16.4570 H       1  UNL1        0.3058
     14 H          64.7273   90.5610   15.6988 H       1  UNL1        0.2454
     15 C          61.4791   86.5068   10.2303 C.ar    1  UNL1        0.2569
     16 N          62.3252   87.4149   11.0726 N.ar    1  UNL1       -0.1768
     17 C          62.2886   88.8974   10.8468 C.ar    1  UNL1        0.2226
     18 N          61.4058   89.4718    9.7787 N.ar    1  UNL1       -0.2155
     19 C          60.5596   88.5636    8.9365 C.ar    1  UNL1        0.0942
     20 C          59.6768   89.1380    7.8685 C.3     1  UNL1        0.0548
     21 C          60.5962   87.0811    9.1623 C.ar    1  UNL1        0.2065
     22 F          59.7500   86.1731    8.3201 F       1  UNL1       -0.1980
     23 C          62.6175   84.4172   11.2731 C.3     1  UNL1        0.2543
     24 O          61.5157   85.0244   10.4562 O.3     1  UNL1       -0.4545
     25 C          63.9493   89.8192   14.6875 C.ar    1  UNL1        0.0404
     26 C          63.3890   90.1920   16.0280 C.ar    1  UNL1        0.0064
     27 C          63.1867   88.9300   16.8131 C.ar    1  UNL1        0.0171
     28 C          63.6219   87.7772   15.9578 C.ar    1  UNL1        0.0975
     29 S          64.0932   88.3268   14.6441 S.2     1  UNL1       -0.0779
     30 C          63.5912   86.3290   16.3476 C.1     1  UNL1        0.1070
     31 N          63.5605   84.8809   16.7375 N.1     1  UNL1       -0.1903
@<TRIPOS>BOND
     1    23    24    1
     2    24    15    1
     3    15    16   ar
     4    16    17   ar
     5    17     1    1
     6     1     2    1
     7     3     2    1
     8     3     4    1
     9     4     5    2
    10     4     6   am
    11     6     7    1
    12     6     8    1
    13     8     9    2
    14     8    10    1
    15    10    11    1
    16    11    25    1
    17    25    26   ar
    18    26    27   ar
    19    27    28   ar
    20    28    30    1
    21    30    31    3
    22    28    29   ar
    23    11    12    1
    24    17    18   ar
    25    18    19   ar
    26    19    20    1
    27    19    21   ar
    28    21    22    1
    29    21    15   ar
    30    12     1    1
    31    11     3    1
    32    29    25   ar
    33     9    13    1
    34    10    14    1
@<TRIPOS>MOLECULE
*****
 31 34 0 0 0
SMALL
GASTEIGER

@<TRIPOS>ATOM
      1 N          63.1455   89.9405   11.6726 N.pl3   1  UNL1       -0.2740
      2 C          63.8758   91.1762   11.2373 C.3     1  UNL1        0.1079
      3 C          64.6152   91.7198   12.4237 C.3     1  UNL1        0.1498
      4 C          65.5021   92.9179   12.5909 C.2     1  UNL1        0.2919
      5 O          65.7755   93.8178   11.4223 O.2     1  UNL1       -0.2563
      6 N          66.1157   93.2162   13.9269 N.am    1  UNL1       -0.1449
      7 C          67.0026   94.4144   14.0941 C.3     1  UNL1        0.2159
      8 C          65.8424   92.3165   15.0954 C.2     1  UNL1        0.3728
      9 N          66.4560   92.6148   16.4314 N.2     1  UNL1       -0.1329
     10 N          64.9555   91.1184   14.9282 N.pl3   1  UNL1       -0.2247
     11 C          64.3419   90.8201   13.5924 C.3     1  UNL1        0.1559
     12 C          63.4336   89.7203   13.1282 C.3     1  UNL1        0.1327
     13 H          67.0380   93.4012   16.5412 H       1  UNL1        0.3058
     14 H          64.7761   90.5279   15.6953 H       1  UNL1        0.2454
     15 C          60.4007   88.8408    9.0255 C.ar    1  UNL1        0.2569
     16 N          61.2671   89.7047    9.8934 N.ar    1  UNL1       -0.1768
     17 C          62.2793   89.0765   10.8048 C.ar    1  UNL1        0.2226
     18 N          62.4251   87.5842   10.8485 N.ar    1  UNL1       -0.2155
     19 C          61.5588   86.7203    9.9807 C.ar    1  UNL1        0.0942
     20 C          61.7047   85.2280   10.0243 C.3     1  UNL1        0.0548
     21 C          60.5466   87.3485    9.0692 C.ar    1  UNL1        0.2065
     22 F          59.6803   86.4845    8.2014 F       1  UNL1       -0.1980
     23 C          59.5605   89.3791    6.6267 C.3     1  UNL1        0.2543
     24 O          59.3886   89.4691    8.1141 O.3     1  UNL1       -0.4545
     25 C          63.9796   89.8349   14.6639 C.ar    1  UNL1        0.0404
     26 C          63.3885   90.1656   16.0022 C.ar    1  UNL1        0.0064
     27 C          63.1882   88.8811   16.7507 C.ar    1  UNL1        0.0171
     28 C          63.6556   87.7567   15.8749 C.ar    1  UNL1        0.0975
     29 S          64.1447   88.3461   14.5852 S.2     1  UNL1       -0.0779
     30 C          63.6372   86.2986   16.2270 C.1     1  UNL1        0.1070
     31 N          63.6188   84.8407   16.5790 N.1     1  UNL1       -0.1903
@<TRIPOS>BOND
     1    23    24    1
     2    24    15    1
     3    15    16   ar
     4    16    17   ar
     5    17     1    1
     6     1     2    1
     7     3     2    1
     8     3     4    1
     9     4     5    2
    10     4     6   am
    11     6     7    1
    12     6     8    1
    13     8     9    2
    14     8    10    1
    15    10    11    1
    16    11    25    1
    17    25    26   ar
    18    26    27   ar
    19    27    28   ar
    20    28    30    1
    21    30    31    3
    22    28    29   ar
    23    11    12    1
    24    17    18   ar
    25    18    19   ar
    26    19    20    1
    27    19    21   ar
    28    21    22    1
    29    21    15   ar
    30    12     1    1
    31    11     3    1
    32    29    25   ar
    33     9    13    1
    34    10    14    1
@<TRIPOS>MOLECULE
*****
 31 34 0 0 0
SMALL
GASTEIGER

@<TRIPOS>ATOM
      1 N          62.4440   89.2317   11.6522 N.pl3   1  UNL1       -0.2740
      2 C          61.5419   89.9536   10.6956 C.3     1  UNL1        0.1079
      3 C          60.9896   88.9471    9.7302 C.3     1  UNL1        0.1498
      4 C          60.0485   89.0808    8.5699 C.2     1  UNL1        0.2919
      5 O          59.4877   90.4247    8.2099 O.2     1  UNL1       -0.2563
      6 N          59.6682   87.8705    7.7694 N.am    1  UNL1       -0.1449
      7 C          58.7270   88.0041    6.6090 C.3     1  UNL1        0.2159
      8 C          60.2290   86.5267    8.1293 C.2     1  UNL1        0.3728
      9 N          59.8487   85.3164    7.3289 N.2     1  UNL1       -0.1329
     10 N          61.1701   86.3930    9.2897 N.pl3   1  UNL1       -0.2247
     11 C          61.5504   87.6033   10.0901 C.3     1  UNL1        0.1559
     12 C          62.4493   87.7791   11.2780 C.3     1  UNL1        0.1327
     13 H          59.2310   85.4040    6.5673 H       1  UNL1        0.3058
     14 H          61.5382   85.5110    9.5259 H       1  UNL1        0.2454
     15 C          63.6363   90.1133   15.3334 C.ar    1  UNL1        0.2569
     16 N          62.8734   89.4918   14.2013 N.ar    1  UNL1       -0.1768
     17 C          63.2070   89.8533   12.7842 C.ar    1  UNL1        0.2226
     18 N          64.3035   90.8363   12.4993 N.ar    1  UNL1       -0.2155
     19 C          65.0664   91.4579   13.6314 C.ar    1  UNL1        0.0942
     20 C          66.1630   92.4409   13.3465 C.3     1  UNL1        0.0548
     21 C          64.7329   91.0964   15.0485 C.ar    1  UNL1        0.2065
     22 F          65.4958   91.7179   16.1805 F       1  UNL1       -0.1980
     23 C          63.0613   88.3187   17.1219 C.3     1  UNL1        0.2543
     24 O          63.3027   89.7518   16.7504 O.3     1  UNL1       -0.4545
     25 C          62.1879   86.3318   10.5664 C.ar    1  UNL1        0.0404
     26 C          62.8662   85.3088    9.7042 C.ar    1  UNL1        0.0064
     27 C          63.3565   84.2047   10.5934 C.ar    1  UNL1        0.0171
     28 C          62.9813   84.5454   12.0052 C.ar    1  UNL1        0.0975
     29 S          62.2590   85.8600   11.9885 S.2     1  UNL1       -0.0779
     30 C          63.2764   83.7169   13.2204 C.1     1  UNL1        0.1070
     31 N          63.5716   82.8886   14.4356 N.1     1  UNL1       -0.1903
@<TRIPOS>BOND
     1    23    24    1
     2    24    15    1
     3    15    16   ar
     4    16    17   ar
     5    17     1    1
     6     1     2    1
     7     3     2    1
     8     3     4    1
     9     4     5    2
    10     4     6   am
    11     6     7    1
    12     6     8    1
    13     8     9    2
    14     8    10    1
    15    10    11    1
    16    11    25    1
    17    25    26   ar
    18    26    27   ar
    19    27    28   ar
    20    28    30    1
    21    30    31    3
    22    28    29   ar
    23    11    12    1
    24    17    18   ar
    25    18    19   ar
    26    19    20    1
    27    19    21   ar
    28    21    22    1
    29    21    15   ar
    30    12     1    1
    31    11     3    1
    32    29    25   ar
    33     9    13    1
    34    10    14    1
@<TRIPOS>MOLECULE
*****
 31 34 0 0 0
SMALL
GASTEIGER

@<TRIPOS>ATOM
      1 N          62.4481   89.2377   11.6623 N.pl3   1  UNL1       -0.2740
      2 C          61.5516   89.9612   10.7015 C.3     1  UNL1        0.1079
      3 C          61.0007   88.9554    9.7347 C.3     1  UNL1        0.1498
      4 C          60.0645   89.0906    8.5705 C.2     1  UNL1        0.2919
      5 O          59.5085   90.4356    8.2072 O.2     1  UNL1       -0.2563
      6 N          59.6844   87.8806    7.7694 N.am    1  UNL1       -0.1449
      7 C          58.7482   88.0157    6.6052 C.3     1  UNL1        0.2159
      8 C          60.2403   86.5357    8.1326 C.2     1  UNL1        0.3728
      9 N          59.8601   85.3257    7.3316 N.2     1  UNL1       -0.1329
     10 N          61.1764   86.4005    9.2968 N.pl3   1  UNL1       -0.2247
     11 C          61.5566   87.6104   10.0979 C.3     1  UNL1        0.1559
     12 C          62.4511   87.7849   11.2892 C.3     1  UNL1        0.1327
     13 H          59.2457   85.4144    6.5674 H       1  UNL1        0.3058
     14 H          61.5413   85.5177    9.5352 H       1  UNL1        0.2454
     15 C          65.0644   91.4632   13.6504 C.ar    1  UNL1        0.2569
     16 N          64.3043   90.8427   12.5158 N.ar    1  UNL1       -0.1768
     17 C          63.2081   89.8582   12.7969 C.ar    1  UNL1        0.2226
     18 N          62.8718   89.4942   14.2127 N.ar    1  UNL1       -0.2155
     19 C          63.6319   90.1148   15.3473 C.ar    1  UNL1        0.0942
     20 C          63.2956   89.7508   16.7631 C.3     1  UNL1        0.0548
     21 C          64.7281   91.0992   15.0662 C.ar    1  UNL1        0.2065
     22 F          65.4881   91.7197   16.2009 F       1  UNL1       -0.1980
     23 C          67.5945   92.0119   13.4324 C.3     1  UNL1        0.2543
     24 O          66.1606   92.4477   13.3692 O.3     1  UNL1       -0.4545
     25 C          62.1889   86.3376   10.5776 C.ar    1  UNL1        0.0404
     26 C          62.8771   85.3173    9.7202 C.ar    1  UNL1        0.0064
     27 C          63.3576   84.2107   10.6118 C.ar    1  UNL1        0.0171
     28 C          62.9663   84.5472   12.0202 C.ar    1  UNL1        0.0975
     29 S          62.2440   85.8617   11.9991 S.2     1  UNL1       -0.0779
     30 C          63.2479   83.7153   13.2362 C.1     1  UNL1        0.1070
     31 N          63.5294   82.8835   14.4523 N.1     1  UNL1       -0.1903
@<TRIPOS>BOND
     1    23    24    1
     2    24    15    1
     3    15    16   ar
     4    16    17   ar
     5    17     1    1
     6     1     2    1
     7     3     2    1
     8     3     4    1
     9     4     5    2
    10     4     6   am
    11     6     7    1
    12     6     8    1
    13     8     9    2
    14     8    10    1
    15    10    11    1
    16    11    25    1
    17    25    26   ar
    18    26    27   ar
    19    27    28   ar
    20    28    30    1
    21    30    31    3
    22    28    29   ar
    23    11    12    1
    24    17    18   ar
    25    18    19   ar
    26    19    20    1
    27    19    21   ar
    28    21    22    1
    29    21    15   ar
    30    12     1    1
    31    11     3    1
    32    29    25   ar
    33     9    13    1
    34    10    14    1
@<TRIPOS>MOLECULE
*****
 31 34 0 0 0
SMALL
GASTEIGER

@<TRIPOS>ATOM
      1 N          63.5266   86.6132   13.3390 N.pl3   1  UNL1       -0.2740
      2 C          63.8178   85.5112   14.3141 C.3     1  UNL1        0.1079
      3 C          63.5709   84.2032   13.6225 C.3     1  UNL1        0.1498
      4 C          63.6928   82.7828   14.0888 C.2     1  UNL1        0.2919
      5 O          64.1366   82.4891   15.4912 O.2     1  UNL1       -0.2563
      6 N          63.3710   81.6559   13.1524 N.am    1  UNL1       -0.1449
      7 C          63.4930   80.2353   13.6186 C.3     1  UNL1        0.2159
      8 C          62.9273   81.9495   11.7500 C.2     1  UNL1        0.3728
      9 N          62.6055   80.8226   10.8137 N.2     1  UNL1       -0.1329
     10 N          62.8053   83.3700   11.2838 N.pl3   1  UNL1       -0.2247
     11 C          63.1272   84.4968   12.2201 C.3     1  UNL1        0.1559
     12 C          63.0998   85.9863   12.0448 C.3     1  UNL1        0.1327
     13 H          62.6855   79.8903   11.1196 H       1  UNL1        0.3058
     14 H          62.5141   83.5627   10.3633 H       1  UNL1        0.2454
     15 C          63.8874   90.5199   12.7409 C.ar    1  UNL1        0.2569
     16 N          63.7720   89.0492   12.4696 N.ar    1  UNL1       -0.1768
     17 C          63.6420   88.0839   13.6104 C.ar    1  UNL1        0.2226
     18 N          63.6273   88.5894   15.0225 N.ar    1  UNL1       -0.2155
     19 C          63.7427   90.0602   15.2938 C.ar    1  UNL1        0.0942
     20 C          63.7281   90.5657   16.7060 C.3     1  UNL1        0.0548
     21 C          63.8728   91.0255   14.1530 C.ar    1  UNL1        0.2065
     22 F          63.9882   92.4962   14.4244 F       1  UNL1       -0.1980
     23 C          63.2187   91.2778   10.3474 C.3     1  UNL1        0.2543
     24 O          64.0175   91.4851   11.6000 O.3     1  UNL1       -0.4545
     25 C          62.6979   84.9426   10.8537 C.ar    1  UNL1        0.0404
     26 C          63.3951   84.6266    9.5637 C.ar    1  UNL1        0.0064
     27 C          62.6242   85.2713    8.4501 C.ar    1  UNL1        0.0171
     28 C          61.4506   85.9857    9.0519 C.ar    1  UNL1        0.0975
     29 S          61.4961   85.7826   10.5374 S.2     1  UNL1       -0.0779
     30 C          60.4134   86.7663    8.3001 C.1     1  UNL1        0.1070
     31 N          59.3763   87.5469    7.5484 N.1     1  UNL1       -0.1903
@<TRIPOS>BOND
     1    23    24    1
     2    24    15    1
     3    15    16   ar
     4    16    17   ar
     5    17     1    1
     6     1     2    1
     7     3     2    1
     8     3     4    1
     9     4     5    2
    10     4     6   am
    11     6     7    1
    12     6     8    1
    13     8     9    2
    14     8    10    1
    15    10    11    1
    16    11    25    1
    17    25    26   ar
    18    26    27   ar
    19    27    28   ar
    20    28    30    1
    21    30    31    3
    22    28    29   ar
    23    11    12    1
    24    17    18   ar
    25    18    19   ar
    26    19    20    1
    27    19    21   ar
    28    21    22    1
    29    21    15   ar
    30    12     1    1
    31    11     3    1
    32    29    25   ar
    33     9    13    1
    34    10    14    1
@<TRIPOS>MOLECULE
*****
 31 34 0 0 0
SMALL
GASTEIGER

@<TRIPOS>ATOM
      1 N          60.8086   93.7228   -0.2380 N.pl3   1  UNL1       -0.2740
      2 C          61.8617   94.5386   -0.9276 C.3     1  UNL1        0.1079
      3 C          61.3220   94.9593   -2.2623 C.3     1  UNL1        0.1498
      4 C          61.9140   95.7767   -3.3720 C.2     1  UNL1        0.2919
      5 O          63.3007   96.3325   -3.2367 O.2     1  UNL1       -0.2563
      6 N          61.1193   96.0383   -4.6170 N.am    1  UNL1       -0.1449
      7 C          61.7114   96.8558   -5.7268 C.3     1  UNL1        0.2159
      8 C          59.7327   95.4826   -4.7524 C.2     1  UNL1        0.3728
      9 N          58.9380   95.7442   -5.9975 N.2     1  UNL1       -0.1329
     10 N          59.1407   94.6652   -3.6427 N.pl3   1  UNL1       -0.2247
     11 C          59.9353   94.4036   -2.3977 C.3     1  UNL1        0.1559
     12 C          59.6180   93.6393   -1.1466 C.3     1  UNL1        0.1327
     13 H          59.3266   96.2807   -6.7258 H       1  UNL1        0.3058
     14 H          58.2306   94.3004   -3.7316 H       1  UNL1        0.2454
     15 C          59.9318   92.6352    3.4767 C.ar    1  UNL1        0.2569
     16 N          59.8149   93.2582    2.1171 N.ar    1  UNL1       -0.1768
     17 C          60.9256   93.0998    1.1215 C.ar    1  UNL1        0.2226
     18 N          62.1532   92.3185    1.4854 N.ar    1  UNL1       -0.2155
     19 C          62.2701   91.6956    2.8449 C.ar    1  UNL1        0.0942
     20 C          63.4978   90.9142    3.2088 C.3     1  UNL1        0.0548
     21 C          61.1594   91.8539    3.8405 C.ar    1  UNL1        0.2065
     22 F          61.2764   91.2309    5.2000 F       1  UNL1       -0.1980
     23 C          57.9769   91.6121    4.8484 C.3     1  UNL1        0.2543
     24 O          58.8210   92.7936    4.4722 O.3     1  UNL1       -0.4545
     25 C          58.5685   93.7857   -2.3902 C.ar    1  UNL1        0.0404
     26 C          57.3210   94.4117   -1.8407 C.ar    1  UNL1        0.0064
     27 C          56.1906   93.4463   -2.0418 C.ar    1  UNL1        0.0171
     28 C          56.7396   92.2237   -2.7156 C.ar    1  UNL1        0.0975
     29 S          58.2092   92.4335   -2.9309 S.2     1  UNL1       -0.0779
     30 C          55.9564   91.0052   -3.1056 C.1     1  UNL1        0.1070
     31 N          55.1734   89.7868   -3.4957 N.1     1  UNL1       -0.1903
@<TRIPOS>BOND
     1    23    24    1
     2    24    15    1
     3    15    16   ar
     4    16    17   ar
     5    17     1    1
     6     1     2    1
     7     3     2    1
     8     3     4    1
     9     4     5    2
    10     4     6   am
    11     6     7    1
    12     6     8    1
    13     8     9    2
    14     8    10    1
    15    10    11    1
    16    11    25    1
    17    25    26   ar
    18    26    27   ar
    19    27    28   ar
    20    28    30    1
    21    30    31    3
    22    28    29   ar
    23    11    12    1
    24    17    18   ar
    25    18    19   ar
    26    19    20    1
    27    19    21   ar
    28    21    22    1
    29    21    15   ar
    30    12     1    1
    31    11     3    1
    32    29    25   ar
    33     9    13    1
    34    10    14    1
@<TRIPOS>MOLECULE
*****
 31 34 0 0 0
SMALL
GASTEIGER

@<TRIPOS>ATOM
      1 N          63.6478   86.9961   13.0147 N.pl3   1  UNL1       -0.2740
      2 C          63.9313   86.0359   14.1316 C.3     1  UNL1        0.1079
      3 C          63.5787   84.6570   13.6581 C.3     1  UNL1        0.1498
      4 C          63.6495   83.3169   14.3283 C.2     1  UNL1        0.2919
      5 O          64.1509   83.2088   15.7379 O.2     1  UNL1       -0.2563
      6 N          63.2188   82.0849   13.5889 N.am    1  UNL1       -0.1449
      7 C          63.2896   80.7447   14.2592 C.3     1  UNL1        0.2159
      8 C          62.7174   82.1929   12.1794 C.2     1  UNL1        0.3728
      9 N          62.2867   80.9609   11.4400 N.2     1  UNL1       -0.1329
     10 N          62.6466   83.5330   11.5092 N.pl3   1  UNL1       -0.2247
     11 C          63.0773   84.7650   12.2485 C.3     1  UNL1        0.1559
     12 C          63.1200   86.2107   11.8509 C.3     1  UNL1        0.1327
     13 H          62.3331   80.0813   11.8798 H       1  UNL1        0.3058
     14 H          62.3175   83.6039   10.5840 H       1  UNL1        0.2454
     15 C          64.6301   90.6114   14.3244 C.ar    1  UNL1        0.2569
     16 N          64.4223   89.1264   14.2844 N.ar    1  UNL1       -0.1768
     17 C          63.8556   88.4811   13.0546 C.ar    1  UNL1        0.2226
     18 N          63.4967   89.3209   11.8647 N.ar    1  UNL1       -0.2155
     19 C          63.7045   90.8059   11.9046 C.ar    1  UNL1        0.0942
     20 C          63.3456   91.6457   10.7147 C.3     1  UNL1        0.0548
     21 C          64.2712   91.4512   13.1345 C.ar    1  UNL1        0.2065
     22 F          64.4790   92.9362   13.1744 F       1  UNL1       -0.1980
     23 C          66.4276   92.1082   15.4552 C.3     1  UNL1        0.2543
     24 O          65.1968   91.2566   15.5543 O.3     1  UNL1       -0.4545
     25 C          62.6004   85.0277   10.8508 C.ar    1  UNL1        0.0404
     26 C          63.2742   84.5748    9.5896 C.ar    1  UNL1        0.0064
     27 C          62.4561   85.0566    8.4282 C.ar    1  UNL1        0.0171
     28 C          61.2767   85.8072    8.9718 C.ar    1  UNL1        0.0975
     29 S          61.3659   85.7894   10.4690 S.2     1  UNL1       -0.0779
     30 C          60.1975   86.4610    8.1605 C.1     1  UNL1        0.1070
     31 N          59.1184   87.1147    7.3493 N.1     1  UNL1       -0.1903
@<TRIPOS>BOND
     1    23    24    1
     2    24    15    1
     3    15    16   ar
     4    16    17   ar
     5    17     1    1
     6     1     2    1
     7     3     2    1
     8     3     4    1
     9     4     5    2
    10     4     6   am
    11     6     7    1
    12     6     8    1
    13     8     9    2
    14     8    10    1
    15    10    11    1
    16    11    25    1
    17    25    26   ar
    18    26    27   ar
    19    27    28   ar
    20    28    30    1
    21    30    31    3
    22    28    29   ar
    23    11    12    1
    24    17    18   ar
    25    18    19   ar
    26    19    20    1
    27    19    21   ar
    28    21    22    1
    29    21    15   ar
    30    12     1    1
    31    11     3    1
    32    29    25   ar
    33     9    13    1
    34    10    14    1
@<TRIPOS>MOLECULE
*****
 31 34 0 0 0
SMALL
GASTEIGER

@<TRIPOS>ATOM
      1 N          59.9753   93.2964   -2.5021 N.pl3   1  UNL1       -0.2740
      2 C          59.8952   93.0380   -1.0267 C.3     1  UNL1        0.1079
      3 C          61.2794   93.1528   -0.4603 C.3     1  UNL1        0.1498
      4 C          61.8088   93.0000    0.9348 C.2     1  UNL1        0.2919
      5 O          60.8733   92.6706    2.0602 O.2     1  UNL1       -0.2563
      6 N          63.2738   93.1766    1.2045 N.am    1  UNL1       -0.1449
      7 C          63.8033   93.0238    2.5997 C.3     1  UNL1        0.2159
      8 C          64.2092   93.5060    0.0793 C.2     1  UNL1        0.3728
      9 N          65.6743   93.6825    0.3490 N.2     1  UNL1       -0.1329
     10 N          63.6798   93.6588   -1.3158 N.pl3   1  UNL1       -0.2247
     11 C          62.2149   93.4822   -1.5856 C.3     1  UNL1        0.1559
     12 C          61.4089   93.5710   -2.8476 C.3     1  UNL1        0.1327
     13 H          66.0218   93.5822    1.2647 H       1  UNL1        0.3058
     14 H          64.2938   93.8750   -2.0544 H       1  UNL1        0.2454
     15 C          56.7167   92.1128   -4.4338 C.ar    1  UNL1        0.2569
     16 N          57.8682   92.1265   -3.4726 N.ar    1  UNL1       -0.1768
     17 C          58.8238   93.2827   -3.4634 C.ar    1  UNL1        0.2226
     18 N          58.6279   94.4252   -4.4154 N.ar    1  UNL1       -0.2155
     19 C          57.4764   94.4114   -5.3766 C.ar    1  UNL1        0.0942
     20 C          57.2806   95.5539   -6.3287 C.3     1  UNL1        0.0548
     21 C          56.5209   93.2552   -5.3858 C.ar    1  UNL1        0.2065
     22 F          55.3694   93.2415   -6.3471 F       1  UNL1       -0.1980
     23 C          55.4803   90.2056   -3.1752 C.3     1  UNL1        0.2543
     24 O          55.7612   90.9566   -4.4430 O.3     1  UNL1       -0.4545
     25 C          63.0249   93.8084   -2.8053 C.ar    1  UNL1        0.0404
     26 C          63.2595   95.1792   -3.3672 C.ar    1  UNL1        0.0064
     27 C          64.1221   95.0390   -4.5864 C.ar    1  UNL1        0.0171
     28 C          64.4206   93.5816   -4.7779 C.ar    1  UNL1        0.0975
     29 S          63.7425   92.8210   -3.6771 S.2     1  UNL1       -0.0779
     30 C          65.2514   92.9887   -5.8772 C.1     1  UNL1        0.1070
     31 N          66.0822   92.3958   -6.9764 N.1     1  UNL1       -0.1903
@<TRIPOS>BOND
     1    23    24    1
     2    24    15    1
     3    15    16   ar
     4    16    17   ar
     5    17     1    1
     6     1     2    1
     7     3     2    1
     8     3     4    1
     9     4     5    2
    10     4     6   am
    11     6     7    1
    12     6     8    1
    13     8     9    2
    14     8    10    1
    15    10    11    1
    16    11    25    1
    17    25    26   ar
    18    26    27   ar
    19    27    28   ar
    20    28    30    1
    21    30    31    3
    22    28    29   ar
    23    11    12    1
    24    17    18   ar
    25    18    19   ar
    26    19    20    1
    27    19    21   ar
    28    21    22    1
    29    21    15   ar
    30    12     1    1
    31    11     3    1
    32    29    25   ar
    33     9    13    1
    34    10    14    1
@<TRIPOS>MOLECULE
*****
 31 34 0 0 0
SMALL
GASTEIGER

@<TRIPOS>ATOM
      1 N          62.8622   85.0690   12.2448 N.pl3   1  UNL1       -0.2740
      2 C          63.5459   85.9105   13.2813 C.3     1  UNL1        0.1079
      3 C          63.4217   87.3470   12.8677 C.3     1  UNL1        0.1498
      4 C          63.9029   88.6189   13.5007 C.2     1  UNL1        0.2919
      5 O          64.6633   88.5727   14.7929 O.2     1  UNL1       -0.2563
      6 N          63.6236   89.9371   12.8415 N.am    1  UNL1       -0.1449
      7 C          64.1047   91.2091   13.4746 C.3     1  UNL1        0.2159
      8 C          62.8632   89.9833   11.5495 C.2     1  UNL1        0.3728
      9 N          62.5839   91.3015   10.8903 N.2     1  UNL1       -0.1329
     10 N          62.3821   88.7114   10.9164 N.pl3   1  UNL1       -0.2247
     11 C          62.6613   87.3933   11.5755 C.3     1  UNL1        0.1559
     12 C          62.3155   85.9854   11.1905 C.3     1  UNL1        0.1327
     13 H          62.8997   92.1364   11.3057 H       1  UNL1        0.3058
     14 H          61.8830   88.7418   10.0683 H       1  UNL1        0.2454
     15 C          63.1070   81.2768   11.1003 C.ar    1  UNL1        0.2569
     16 N          63.2235   82.7722   11.0853 N.ar    1  UNL1       -0.1768
     17 C          62.7456   83.5736   12.2598 C.ar    1  UNL1        0.2226
     18 N          62.1512   82.8796   13.4493 N.ar    1  UNL1       -0.2155
     19 C          62.0346   81.3842   13.4643 C.ar    1  UNL1        0.0942
     20 C          61.4402   80.6901   14.6538 C.3     1  UNL1        0.0548
     21 C          62.5125   80.5828   12.2898 C.ar    1  UNL1        0.2065
     22 F          62.3959   79.0874   12.3048 F       1  UNL1       -0.1980
     23 C          62.8153   79.2682    9.4784 C.3     1  UNL1        0.2543
     24 O          63.5848   80.4755    9.9257 O.3     1  UNL1       -0.4545
     25 C          61.8929   87.2830   10.2920 C.ar    1  UNL1        0.0404
     26 C          61.8413   86.0813    9.3958 C.ar    1  UNL1        0.0064
     27 C          60.9577   86.4106    8.2292 C.ar    1  UNL1        0.0171
     28 C          60.4632   87.8158    8.4045 C.ar    1  UNL1        0.0975
     29 S          61.0412   88.3550    9.6794 S.2     1  UNL1       -0.0779
     30 C          59.5509   88.5526    7.4691 C.1     1  UNL1        0.1070
     31 N          58.6387   89.2894    6.5338 N.1     1  UNL1       -0.1903
@<TRIPOS>BOND
     1    23    24    1
     2    24    15    1
     3    15    16   ar
     4    16    17   ar
     5    17     1    1
     6     1     2    1
     7     3     2    1
     8     3     4    1
     9     4     5    2
    10     4     6   am
    11     6     7    1
    12     6     8    1
    13     8     9    2
    14     8    10    1
    15    10    11    1
    16    11    25    1
    17    25    26   ar
    18    26    27   ar
    19    27    28   ar
    20    28    30    1
    21    30    31    3
    22    28    29   ar
    23    11    12    1
    24    17    18   ar
    25    18    19   ar
    26    19    20    1
    27    19    21   ar
    28    21    22    1
    29    21    15   ar
    30    12     1    1
    31    11     3    1
    32    29    25   ar
    33     9    13    1
    34    10    14    1
