@<TRIPOS>MOLECULE
*****
 27 29 0 0 0
SMALL
GASTEIGER

@<TRIPOS>ATOM
      1 C          65.1431   92.0489   12.2997 C.ar    1  UNL1        0.1227
      2 C          64.8250   92.2863   10.8532 C.ar    1  UNL1        0.1421
      3 O          65.7074   93.1748   10.0272 O.3     1  UNL1       -0.5052
      4 C          63.6246   91.6354   10.2326 C.ar    1  UNL1        0.0517
      5 C          62.7422   90.7469   11.0586 C.ar    1  UNL1        0.0655
      6 N          63.0603   90.5095   12.5051 N.ar    1  UNL1       -0.2144
      7 N          62.3795   89.6902   13.5611 N.ar    1  UNL1       -0.1413
      8 C          63.1592   89.8348   14.8343 C.ar    1  UNL1        0.2213
      9 N          64.3219   90.7436   14.5652 N.ar    1  UNL1       -0.2032
     10 C          64.2608   91.1606   13.1257 C.ar    1  UNL1        0.1725
     11 H          66.4573   93.5814   10.4149 H       1  UNL1        0.2922
     12 N          67.2497   91.9056   13.8135 N.am    1  UNL1       -0.2958
     13 C          66.3436   92.7000   12.9202 C.2     1  UNL1        0.2521
     14 O          66.6379   94.1454   12.6475 O.2     1  UNL1       -0.2699
     15 H          67.0566   90.9570   13.9925 H       1  UNL1        0.1501
     16 C          68.4502   92.5567   14.4340 C.3     1  UNL1        0.1318
     17 O          69.3891   94.2998   16.1165 O.co2   1  UNL1       -0.5474
     18 C          68.3022   93.3558   15.6948 C.2     1  UNL1        0.0702
     19 O          67.0673   93.2110   16.5339 O.co2   1  UNL1       -0.5474
     20 C          61.5417   90.0959   10.4379 C.3     1  UNL1        0.0507
     21 C          61.2019   88.6741   10.7739 C.3     1  UNL1        0.0326
     22 C          61.0995   87.6497    9.6829 C.ar    1  UNL1       -0.0218
     23 C          59.8247   87.5070    8.9055 C.ar    1  UNL1       -0.0043
     24 C          59.7222   86.4826    7.8145 C.ar    1  UNL1       -0.0003
     25 C          60.8946   85.6009    7.5010 C.ar    1  UNL1       -0.0000
     26 C          62.1694   85.7437    8.2785 C.ar    1  UNL1       -0.0003
     27 C          62.2718   86.7681    9.3694 C.ar    1  UNL1       -0.0043
@<TRIPOS>UNITY_ATOM_ATTR
17 1
charge -1
@<TRIPOS>BOND
     1    17    18   ar
     2    18    19   ar
     3    18    16    1
     4    16    12    1
     5    12    13   am
     6    13    14    2
     7    13     1    1
     8     1     2   ar
     9     2     3    1
    10     2     4   ar
    11     4     5   ar
    12     5    20    1
    13    20    21    1
    14    21    22    1
    15    22    23   ar
    16    23    24   ar
    17    24    25   ar
    18    25    26   ar
    19    26    27   ar
    20     5     6   ar
    21     6     7   ar
    22     7     8   ar
    23     8     9   ar
    24     9    10   ar
    25    10     1   ar
    26    27    22   ar
    27    10     6   ar
    28    12    15    1
    29     3    11    1
@<TRIPOS>MOLECULE
*****
 27 29 0 0 0
SMALL
GASTEIGER

@<TRIPOS>ATOM
      1 C          65.1126   91.9811   12.4072 C.ar    1  UNL1        0.1227
      2 C          64.7561   92.1460   10.9596 C.ar    1  UNL1        0.1421
      3 O          65.6207   92.9842   10.0651 O.3     1  UNL1       -0.5052
      4 C          63.5351   91.4729   10.4065 C.ar    1  UNL1        0.0517
      5 C          62.6705   90.6347   11.3010 C.ar    1  UNL1        0.0655
      6 N          63.0271   90.4698   12.7487 N.ar    1  UNL1       -0.2144
      7 N          62.3708   89.7110   13.8638 N.ar    1  UNL1       -0.1413
      8 C          63.1862   89.9152   15.1061 C.ar    1  UNL1        0.2213
      9 N          64.3465   90.8002   14.7588 N.ar    1  UNL1       -0.2032
     10 C          64.2481   91.1430   13.3018 C.ar    1  UNL1        0.1725
     11 H          66.3834   93.4046   10.4106 H       1  UNL1        0.2922
     12 N          67.2619   91.8988   13.8645 N.am    1  UNL1       -0.2958
     13 C          66.3336   92.6543   12.9603 C.2     1  UNL1        0.2521
     14 O          66.6264   94.0830   12.6092 O.2     1  UNL1       -0.2699
     15 H          67.0698   90.9612   14.0950 H       1  UNL1        0.1501
     16 C          68.4830   92.5721   14.4176 C.3     1  UNL1        0.1318
     17 O          69.5285   94.2540   16.0994 O.co2   1  UNL1       -0.5474
     18 C          68.3911   93.3677   15.6859 C.2     1  UNL1        0.0702
     19 O          67.1618   93.2771   16.5407 O.co2   1  UNL1       -0.5474
     20 C          61.4495   89.9616   10.7478 C.3     1  UNL1        0.0507
     21 C          61.5827   88.9591    9.6400 C.3     1  UNL1        0.0326
     22 C          61.9923   87.5497    9.9492 C.ar    1  UNL1       -0.0218
     23 C          62.3916   86.6238    8.8387 C.ar    1  UNL1       -0.0043
     24 C          62.8012   85.2144    9.1479 C.ar    1  UNL1       -0.0003
     25 C          62.8116   84.7307   10.5678 C.ar    1  UNL1       -0.0000
     26 C          62.4124   85.6566   11.6784 C.ar    1  UNL1       -0.0003
     27 C          62.0027   87.0660   11.3691 C.ar    1  UNL1       -0.0043
@<TRIPOS>UNITY_ATOM_ATTR
17 1
charge -1
@<TRIPOS>BOND
     1    17    18   ar
     2    18    19   ar
     3    18    16    1
     4    16    12    1
     5    12    13   am
     6    13    14    2
     7    13     1    1
     8     1     2   ar
     9     2     3    1
    10     2     4   ar
    11     4     5   ar
    12     5    20    1
    13    20    21    1
    14    21    22    1
    15    22    23   ar
    16    23    24   ar
    17    24    25   ar
    18    25    26   ar
    19    26    27   ar
    20     5     6   ar
    21     6     7   ar
    22     7     8   ar
    23     8     9   ar
    24     9    10   ar
    25    10     1   ar
    26    27    22   ar
    27    10     6   ar
    28    12    15    1
    29     3    11    1
@<TRIPOS>MOLECULE
*****
 27 29 0 0 0
SMALL
GASTEIGER

@<TRIPOS>ATOM
      1 C          62.5406   90.3268   11.8180 C.ar    1  UNL1        0.1227
      2 C          63.1659   91.1070   10.7000 C.ar    1  UNL1        0.1421
      3 O          62.5630   91.0647    9.3271 O.3     1  UNL1       -0.5052
      4 C          64.3941   91.9294   10.9547 C.ar    1  UNL1        0.0517
      5 C          64.9971   91.9717   12.3276 C.ar    1  UNL1        0.0655
      6 N          64.3718   91.1915   13.4456 N.ar    1  UNL1       -0.2144
      7 N          64.7390   91.0404   14.8921 N.ar    1  UNL1       -0.1413
      8 C          63.7377   90.1246   15.5313 C.ar    1  UNL1        0.2213
      9 N          62.7516   89.7096   14.4799 N.ar    1  UNL1       -0.2032
     10 C          63.1435   90.3690   13.1909 C.ar    1  UNL1        0.1725
     11 H          61.7957   90.5510    9.1680 H       1  UNL1        0.2922
     12 N          61.2550   88.5900   10.3755 N.am    1  UNL1       -0.2958
     13 C          61.3123   89.5043   11.5633 C.2     1  UNL1        0.2521
     14 O          60.1413   89.5962   12.4963 O.2     1  UNL1       -0.2699
     15 H          62.0235   88.5297    9.7632 H       1  UNL1        0.1501
     16 C          60.0266   87.7676   10.1209 C.3     1  UNL1        0.1318
     17 O          61.0916   86.2574    8.2945 O.co2   1  UNL1       -0.5474
     18 C          59.9008   86.9814    8.8496 C.2     1  UNL1        0.0702
     19 O          58.5843   86.9190    8.1335 O.co2   1  UNL1       -0.5474
     20 C          66.2254   92.7942   12.5822 C.3     1  UNL1        0.0507
     21 C          66.1963   94.2763   12.3533 C.3     1  UNL1        0.0326
     22 C          66.5987   94.8375   11.0217 C.ar    1  UNL1       -0.0218
     23 C          66.3932   96.2942   10.7286 C.ar    1  UNL1       -0.0043
     24 C          66.7956   96.8554    9.3970 C.ar    1  UNL1       -0.0003
     25 C          67.4036   95.9598    8.3585 C.ar    1  UNL1       -0.0000
     26 C          67.6091   94.5032    8.6515 C.ar    1  UNL1       -0.0003
     27 C          67.2066   93.9421    9.9832 C.ar    1  UNL1       -0.0043
@<TRIPOS>UNITY_ATOM_ATTR
17 1
charge -1
@<TRIPOS>BOND
     1    17    18   ar
     2    18    19   ar
     3    18    16    1
     4    16    12    1
     5    12    13   am
     6    13    14    2
     7    13     1    1
     8     1     2   ar
     9     2     3    1
    10     2     4   ar
    11     4     5   ar
    12     5    20    1
    13    20    21    1
    14    21    22    1
    15    22    23   ar
    16    23    24   ar
    17    24    25   ar
    18    25    26   ar
    19    26    27   ar
    20     5     6   ar
    21     6     7   ar
    22     7     8   ar
    23     8     9   ar
    24     9    10   ar
    25    10     1   ar
    26    27    22   ar
    27    10     6   ar
    28    12    15    1
    29     3    11    1
@<TRIPOS>MOLECULE
*****
 27 29 0 0 0
SMALL
GASTEIGER

@<TRIPOS>ATOM
      1 C          64.4066   91.0379   13.9326 C.ar    1  UNL1        0.1227
      2 C          63.4676   89.9037   14.2191 C.ar    1  UNL1        0.1421
      3 O          63.3635   89.3492   15.6090 O.3     1  UNL1       -0.5052
      4 C          62.6329   89.3242   13.1159 C.ar    1  UNL1        0.0517
      5 C          62.7370   89.8788   11.7260 C.ar    1  UNL1        0.0655
      6 N          63.6760   91.0129   11.4395 N.ar    1  UNL1       -0.2144
      7 N          63.9908   91.7611   10.1781 N.ar    1  UNL1       -0.1413
      8 C          65.0202   92.8030   10.5018 C.ar    1  UNL1        0.2213
      9 N          65.3415   92.6988   11.9633 N.ar    1  UNL1       -0.2032
     10 C          64.5108   91.5924   12.5428 C.ar    1  UNL1        0.1725
     11 H          63.8849   89.7112   16.2982 H       1  UNL1        0.2922
     12 N          66.7269   91.7394   14.8676 N.am    1  UNL1       -0.2958
     13 C          65.2414   91.6174   15.0359 C.2     1  UNL1        0.2521
     14 O          64.5906   92.0749   16.3077 O.2     1  UNL1       -0.2699
     15 H          67.1540   91.4392   14.0329 H       1  UNL1        0.1501
     16 C          67.5616   92.3190   15.9710 C.3     1  UNL1        0.1318
     17 O          69.6803   92.9100   14.5882 O.co2   1  UNL1       -0.5474
     18 C          68.6795   93.2653   15.6477 C.2     1  UNL1        0.0702
     19 O          68.7968   94.5670   16.3838 O.co2   1  UNL1       -0.5474
     20 C          61.9022   89.2992   10.6227 C.3     1  UNL1        0.0507
     21 C          61.2217   87.9761   10.8130 C.3     1  UNL1        0.0326
     22 C          61.9295   86.7079   10.4379 C.ar    1  UNL1       -0.0218
     23 C          62.3597   86.4806    9.0191 C.ar    1  UNL1       -0.0043
     24 C          63.0675   85.2124    8.6440 C.ar    1  UNL1       -0.0003
     25 C          63.3451   84.1715    9.6878 C.ar    1  UNL1       -0.0000
     26 C          62.9148   84.3988   11.1067 C.ar    1  UNL1       -0.0003
     27 C          62.2070   85.6670   11.4817 C.ar    1  UNL1       -0.0043
@<TRIPOS>UNITY_ATOM_ATTR
17 1
charge -1
@<TRIPOS>BOND
     1    17    18   ar
     2    18    19   ar
     3    18    16    1
     4    16    12    1
     5    12    13   am
     6    13    14    2
     7    13     1    1
     8     1     2   ar
     9     2     3    1
    10     2     4   ar
    11     4     5   ar
    12     5    20    1
    13    20    21    1
    14    21    22    1
    15    22    23   ar
    16    23    24   ar
    17    24    25   ar
    18    25    26   ar
    19    26    27   ar
    20     5     6   ar
    21     6     7   ar
    22     7     8   ar
    23     8     9   ar
    24     9    10   ar
    25    10     1   ar
    26    27    22   ar
    27    10     6   ar
    28    12    15    1
    29     3    11    1
@<TRIPOS>MOLECULE
*****
 27 29 0 0 0
SMALL
GASTEIGER

@<TRIPOS>ATOM
      1 C          64.1686   90.8394   12.1920 C.ar    1  UNL1        0.1227
      2 C          63.3944   90.8805   10.9079 C.ar    1  UNL1        0.1421
      3 O          63.4408   92.1052   10.0430 O.3     1  UNL1       -0.5052
      4 C          62.5739   89.6969   10.4886 C.ar    1  UNL1        0.0517
      5 C          62.5275   88.4722   11.3535 C.ar    1  UNL1        0.0655
      6 N          63.3017   88.4311   12.6376 N.ar    1  UNL1       -0.2144
      7 N          63.4478   87.3703   13.6880 N.ar    1  UNL1       -0.1413
      8 C          64.3586   87.8984   14.7564 C.ar    1  UNL1        0.2213
      9 N          64.7754   89.2855   14.3664 N.ar    1  UNL1       -0.2032
     10 C          64.1222   89.6147   13.0568 C.ar    1  UNL1        0.1725
     11 H          63.9534   92.8446   10.3049 H       1  UNL1        0.2922
     12 N          65.4174   92.1702   14.0412 N.am    1  UNL1       -0.2958
     13 C          64.9891   92.0231   12.6112 C.2     1  UNL1        0.2521
     14 O          65.3815   93.0596   11.6003 O.2     1  UNL1       -0.2699
     15 H          65.1599   91.4899   14.7047 H       1  UNL1        0.1501
     16 C          66.2379   93.3539   14.4604 C.3     1  UNL1        0.1318
     17 O          68.5471   92.3678   13.7929 O.co2   1  UNL1       -0.5474
     18 C          67.7064   93.1940   14.7207 C.2     1  UNL1        0.0702
     19 O          68.3344   93.8602   15.9089 O.co2   1  UNL1       -0.5474
     20 C          61.7069   87.2886   10.9342 C.3     1  UNL1        0.0507
     21 C          62.2775   86.2800    9.9817 C.3     1  UNL1        0.0326
     22 C          62.7745   84.9611   10.4951 C.ar    1  UNL1       -0.0218
     23 C          63.5754   84.0618    9.6008 C.ar    1  UNL1       -0.0043
     24 C          64.0724   82.7429   10.1141 C.ar    1  UNL1       -0.0003
     25 C          63.7685   82.3233   11.5219 C.ar    1  UNL1       -0.0000
     26 C          62.9676   83.2226   12.4162 C.ar    1  UNL1       -0.0003
     27 C          62.4706   84.5415   11.9027 C.ar    1  UNL1       -0.0043
@<TRIPOS>UNITY_ATOM_ATTR
17 1
charge -1
@<TRIPOS>BOND
     1    17    18   ar
     2    18    19   ar
     3    18    16    1
     4    16    12    1
     5    12    13   am
     6    13    14    2
     7    13     1    1
     8     1     2   ar
     9     2     3    1
    10     2     4   ar
    11     4     5   ar
    12     5    20    1
    13    20    21    1
    14    21    22    1
    15    22    23   ar
    16    23    24   ar
    17    24    25   ar
    18    25    26   ar
    19    26    27   ar
    20     5     6   ar
    21     6     7   ar
    22     7     8   ar
    23     8     9   ar
    24     9    10   ar
    25    10     1   ar
    26    27    22   ar
    27    10     6   ar
    28    12    15    1
    29     3    11    1
@<TRIPOS>MOLECULE
*****
 27 29 0 0 0
SMALL
GASTEIGER

@<TRIPOS>ATOM
      1 C          63.6962   85.6401   13.3937 C.ar    1  UNL1        0.1227
      2 C          64.3440   86.3416   14.5505 C.ar    1  UNL1        0.1421
      3 O          64.9693   85.5441   15.6564 O.3     1  UNL1       -0.5052
      4 C          64.3667   87.8405   14.6014 C.ar    1  UNL1        0.0517
      5 C          63.7414   88.6381   13.4954 C.ar    1  UNL1        0.0655
      6 N          63.0935   87.9366   12.3387 N.ar    1  UNL1       -0.2144
      7 N          62.4014   88.4525   11.1120 N.ar    1  UNL1       -0.1413
      8 C          61.9511   87.2724   10.3030 C.ar    1  UNL1        0.2213
      9 N          62.3648   86.0271   11.0297 N.ar    1  UNL1       -0.2032
     10 C          63.0709   86.4376   12.2878 C.ar    1  UNL1        0.1725
     11 H          64.9552   84.6077   15.6246 H       1  UNL1        0.2922
     12 N          62.6162   83.4335   12.5484 N.am    1  UNL1       -0.2958
     13 C          63.6736   84.1411   13.3429 C.2     1  UNL1        0.2521
     14 O          64.7085   83.3498   14.0865 O.2     1  UNL1       -0.2699
     15 H          61.9370   83.9529   12.0604 H       1  UNL1        0.1501
     16 C          62.5937   81.9345   12.4977 C.3     1  UNL1        0.1318
     17 O          63.3073   80.3474   14.4270 O.co2   1  UNL1       -0.5474
     18 C          62.2488   81.1476   13.7272 C.2     1  UNL1        0.0702
     19 O          60.8456   81.1607   14.2571 O.co2   1  UNL1       -0.5474
     20 C          63.7640   90.1371   13.5464 C.3     1  UNL1        0.0507
     21 C          64.1833   90.8385   14.8042 C.3     1  UNL1        0.0326
     22 C          65.5260   91.5030   14.8803 C.ar    1  UNL1       -0.0218
     23 C          66.5041   91.3487   13.7536 C.ar    1  UNL1       -0.0043
     24 C          67.8468   92.0132   13.8298 C.ar    1  UNL1       -0.0003
     25 C          68.2113   92.8320   15.0327 C.ar    1  UNL1       -0.0000
     26 C          67.2331   92.9862   16.1594 C.ar    1  UNL1       -0.0003
     27 C          65.8905   92.3217   16.0832 C.ar    1  UNL1       -0.0043
@<TRIPOS>UNITY_ATOM_ATTR
17 1
charge -1
@<TRIPOS>BOND
     1    17    18   ar
     2    18    19   ar
     3    18    16    1
     4    16    12    1
     5    12    13   am
     6    13    14    2
     7    13     1    1
     8     1     2   ar
     9     2     3    1
    10     2     4   ar
    11     4     5   ar
    12     5    20    1
    13    20    21    1
    14    21    22    1
    15    22    23   ar
    16    23    24   ar
    17    24    25   ar
    18    25    26   ar
    19    26    27   ar
    20     5     6   ar
    21     6     7   ar
    22     7     8   ar
    23     8     9   ar
    24     9    10   ar
    25    10     1   ar
    26    27    22   ar
    27    10     6   ar
    28    12    15    1
    29     3    11    1
@<TRIPOS>MOLECULE
*****
 27 29 0 0 0
SMALL
GASTEIGER

@<TRIPOS>ATOM
      1 C          65.3488   92.1498   12.9248 C.ar    1  UNL1        0.1227
      2 C          65.8752   91.7246   14.2635 C.ar    1  UNL1        0.1421
      3 O          66.8931   92.5687   14.9717 O.3     1  UNL1       -0.5052
      4 C          65.3839   90.4554   14.8939 C.ar    1  UNL1        0.0517
      5 C          64.3660   89.6113   14.1857 C.ar    1  UNL1        0.0655
      6 N          63.8396   90.0365   12.8471 N.ar    1  UNL1       -0.2144
      7 N          62.8397   89.4143   11.9180 N.ar    1  UNL1       -0.1413
      8 C          62.7132   90.2990   10.7134 C.ar    1  UNL1        0.2213
      9 N          63.6348   91.4680   10.8979 N.ar    1  UNL1       -0.2032
     10 C          64.3310   91.3058   12.2166 C.ar    1  UNL1        0.1725
     11 H          67.2001   93.3616   14.5778 H       1  UNL1        0.2922
     12 N          65.8843   93.5463   10.8005 N.am    1  UNL1       -0.2958
     13 C          65.8402   93.4191   12.2944 C.2     1  UNL1        0.2521
     14 O          66.2875   94.5612   13.1579 O.2     1  UNL1       -0.2699
     15 H          65.5907   92.7968   10.2337 H       1  UNL1        0.1501
     16 C          66.3758   94.8157   10.1701 C.3     1  UNL1        0.1318
     17 O          68.7389   93.8804    9.6306 O.co2   1  UNL1       -0.5474
     18 C          67.5981   94.7970    9.3009 C.2     1  UNL1        0.0702
     19 O          67.6798   95.6949    8.1021 O.co2   1  UNL1       -0.5474
     20 C          63.8746   88.3420   14.8163 C.3     1  UNL1        0.0507
     21 C          64.6491   87.0693   14.6421 C.3     1  UNL1        0.0326
     22 C          63.9239   85.7707   14.4477 C.ar    1  UNL1       -0.0218
     23 C          63.5941   84.9113   15.6320 C.ar    1  UNL1       -0.0043
     24 C          62.8688   83.6127   15.4376 C.ar    1  UNL1       -0.0003
     25 C          62.4734   83.1736   14.0588 C.ar    1  UNL1       -0.0000
     26 C          62.8032   84.0330   12.8745 C.ar    1  UNL1       -0.0003
     27 C          63.5285   85.3316   13.0690 C.ar    1  UNL1       -0.0043
@<TRIPOS>UNITY_ATOM_ATTR
17 1
charge -1
@<TRIPOS>BOND
     1    17    18   ar
     2    18    19   ar
     3    18    16    1
     4    16    12    1
     5    12    13   am
     6    13    14    2
     7    13     1    1
     8     1     2   ar
     9     2     3    1
    10     2     4   ar
    11     4     5   ar
    12     5    20    1
    13    20    21    1
    14    21    22    1
    15    22    23   ar
    16    23    24   ar
    17    24    25   ar
    18    25    26   ar
    19    26    27   ar
    20     5     6   ar
    21     6     7   ar
    22     7     8   ar
    23     8     9   ar
    24     9    10   ar
    25    10     1   ar
    26    27    22   ar
    27    10     6   ar
    28    12    15    1
    29     3    11    1
@<TRIPOS>MOLECULE
*****
 27 29 0 0 0
SMALL
GASTEIGER

@<TRIPOS>ATOM
      1 C          62.5789   88.9723   11.3305 C.ar    1  UNL1        0.1227
      2 C          62.6382   90.2769   10.5927 C.ar    1  UNL1        0.1421
      3 O          61.8558   90.4583    9.3257 O.3     1  UNL1       -0.5052
      4 C          63.4798   91.4001   11.1217 C.ar    1  UNL1        0.0517
      5 C          64.2622   91.2188   12.3887 C.ar    1  UNL1        0.0655
      6 N          64.2029   89.9142   13.1265 N.ar    1  UNL1       -0.2144
      7 N          64.8600   89.4454   14.3907 N.ar    1  UNL1       -0.1413
      8 C          64.4245   88.0323   14.6430 C.ar    1  UNL1        0.2213
      9 N          63.4982   87.6279   13.5347 N.ar    1  UNL1       -0.2032
     10 C          63.3612   88.7909   12.5974 C.ar    1  UNL1        0.1725
     11 H          61.3301   89.7566    8.9952 H       1  UNL1        0.2922
     12 N          61.7581   87.5213    9.3378 N.am    1  UNL1       -0.2958
     13 C          61.7373   87.8490   10.8014 C.2     1  UNL1        0.2521
     14 O          60.8747   87.0535   11.7359 O.2     1  UNL1       -0.2699
     15 H          62.3242   88.0433    8.7244 H       1  UNL1        0.1501
     16 C          60.9164   86.3980    8.8088 C.3     1  UNL1        0.1318
     17 O          60.5647   84.9775    6.6620 O.co2   1  UNL1       -0.5474
     18 C          61.4626   85.4855    7.7509 C.2     1  UNL1        0.0702
     19 O          62.9067   85.0809    7.7820 O.co2   1  UNL1       -0.5474
     20 C          65.1038   92.3422   12.9177 C.3     1  UNL1        0.0507
     21 C          66.5720   92.3869   12.6136 C.3     1  UNL1        0.0326
     22 C          67.0447   92.8380   11.2634 C.ar    1  UNL1       -0.0218
     23 C          66.5289   94.1188   10.6774 C.ar    1  UNL1       -0.0043
     24 C          67.0016   94.5698    9.3272 C.ar    1  UNL1       -0.0003
     25 C          67.9903   93.7400    8.5629 C.ar    1  UNL1       -0.0000
     26 C          68.5061   92.4592    9.1489 C.ar    1  UNL1       -0.0003
     27 C          68.0333   92.0082   10.4991 C.ar    1  UNL1       -0.0043
@<TRIPOS>UNITY_ATOM_ATTR
17 1
charge -1
@<TRIPOS>BOND
     1    17    18   ar
     2    18    19   ar
     3    18    16    1
     4    16    12    1
     5    12    13   am
     6    13    14    2
     7    13     1    1
     8     1     2   ar
     9     2     3    1
    10     2     4   ar
    11     4     5   ar
    12     5    20    1
    13    20    21    1
    14    21    22    1
    15    22    23   ar
    16    23    24   ar
    17    24    25   ar
    18    25    26   ar
    19    26    27   ar
    20     5     6   ar
    21     6     7   ar
    22     7     8   ar
    23     8     9   ar
    24     9    10   ar
    25    10     1   ar
    26    27    22   ar
    27    10     6   ar
    28    12    15    1
    29     3    11    1
@<TRIPOS>MOLECULE
*****
 27 29 0 0 0
SMALL
GASTEIGER

@<TRIPOS>ATOM
      1 C          63.5256   89.2445   12.6283 C.ar    1  UNL1        0.1227
      2 C          62.7574   89.1144   11.3466 C.ar    1  UNL1        0.1421
      3 O          62.4779   90.3299   10.5131 O.3     1  UNL1       -0.5052
      4 C          62.2689   87.7690   10.8983 C.ar    1  UNL1        0.0517
      5 C          62.5485   86.5535   11.7317 C.ar    1  UNL1        0.0655
      6 N          63.3166   86.6836   13.0134 N.ar    1  UNL1       -0.2144
      7 N          63.7410   85.6719   14.0363 N.ar    1  UNL1       -0.1413
      8 C          64.4918   86.3921   15.1168 C.ar    1  UNL1        0.2213
      9 N          64.5316   87.8489   14.7618 N.ar    1  UNL1       -0.2032
     10 C          63.8052   88.0291   13.4618 C.ar    1  UNL1        0.1725
     11 H          62.7831   91.1703   10.7932 H       1  UNL1        0.2922
     12 N          65.1884   90.6905   14.0047 N.am    1  UNL1       -0.2958
     13 C          64.0142   90.5900   13.0767 C.2     1  UNL1        0.2521
     14 O          63.3287   91.8350   12.5969 O.2     1  UNL1       -0.2699
     15 H          65.6383   89.8734   14.3196 H       1  UNL1        0.1501
     16 C          65.6769   92.0360   14.4530 C.3     1  UNL1        0.1318
     17 O          66.8588   92.8765   16.6087 O.co2   1  UNL1       -0.5474
     18 C          65.6193   92.4093   15.9047 C.2     1  UNL1        0.0702
     19 O          64.3223   92.3155   16.6524 O.co2   1  UNL1       -0.5474
     20 C          62.0598   85.2081   11.2833 C.3     1  UNL1        0.0507
     21 C          63.0177   84.0585   11.1799 C.3     1  UNL1        0.0326
     22 C          62.7745   82.8064   11.9693 C.ar    1  UNL1       -0.0218
     23 C          63.0023   81.4652   11.3374 C.ar    1  UNL1       -0.0043
     24 C          62.7591   80.2131   12.1267 C.ar    1  UNL1       -0.0003
     25 C          62.2880   80.3022   13.5482 C.ar    1  UNL1       -0.0000
     26 C          62.0602   81.6434   14.1801 C.ar    1  UNL1       -0.0003
     27 C          62.3035   82.8954   13.3906 C.ar    1  UNL1       -0.0043
@<TRIPOS>UNITY_ATOM_ATTR
17 1
charge -1
@<TRIPOS>BOND
     1    17    18   ar
     2    18    19   ar
     3    18    16    1
     4    16    12    1
     5    12    13   am
     6    13    14    2
     7    13     1    1
     8     1     2   ar
     9     2     3    1
    10     2     4   ar
    11     4     5   ar
    12     5    20    1
    13    20    21    1
    14    21    22    1
    15    22    23   ar
    16    23    24   ar
    17    24    25   ar
    18    25    26   ar
    19    26    27   ar
    20     5     6   ar
    21     6     7   ar
    22     7     8   ar
    23     8     9   ar
    24     9    10   ar
    25    10     1   ar
    26    27    22   ar
    27    10     6   ar
    28    12    15    1
    29     3    11    1
