@<TRIPOS>MOLECULE
*****
 39 44 0 0 0
SMALL
GASTEIGER

@<TRIPOS>ATOM
      1 C          60.0211   88.6484   10.0563 C.ar    1  UNL1        0.2400
      2 N          58.9235   88.2235    9.1264 N.ar    1  UNL1       -0.2090
      3 C          58.8256   88.8268    7.7565 C.ar    1  UNL1        0.1042
      4 C          59.6593   89.8797    6.9971 C.ar    1  UNL1        0.0463
      5 C          60.1755   89.6089    8.3792 C.ar    1  UNL1        0.0242
      6 C          61.0208   89.6765    9.6165 C.ar    1  UNL1        0.1179
      7 N          62.1036   90.0752   10.5749 N.pl3   1  UNL1       -0.2104
      8 S          63.3065   90.7619   11.1506 S.O2    1  UNL1        0.0737
      9 O          62.6682   89.7790   12.0867 O.2     1  UNL1       -0.1499
     10 O          63.9966   90.6589   12.4784 O.2     1  UNL1       -0.1499
     11 C          64.7254   91.9107   11.1492 C.ar    1  UNL1        0.1253
     12 C          65.4957   91.8929   12.4362 C.ar    1  UNL1        0.0202
     13 C          66.6943   92.7788   12.6050 C.ar    1  UNL1        0.0015
     14 C          67.1227   93.6823   11.4869 C.ar    1  UNL1        0.0046
     15 C          66.3523   93.7001   10.2000 C.ar    1  UNL1        0.0547
     16 C          65.1537   92.8143   10.0311 C.ar    1  UNL1        0.0247
     17 C          66.8118   94.6171    9.1055 C.2     1  UNL1        0.2461
     18 O          67.9967   95.2377    9.7845 O.2     1  UNL1       -0.2701
     19 N          66.8813   95.3299    7.7876 N.am    1  UNL1       -0.2969
     20 C          66.5531   95.7611    6.3888 C.3     1  UNL1        0.1166
     21 C          65.8629   95.8641    5.0610 C.ar    1  UNL1       -0.0029
     22 C          66.1531   96.7214    3.8115 C.ar    1  UNL1       -0.0026
     23 C          65.4908   96.8527    2.4720 C.ar    1  UNL1       -0.0006
     24 C          64.2777   96.0307    2.1515 C.ar    1  UNL1       -0.0039
     25 C          63.7269   95.0775    3.1703 C.ar    1  UNL1       -0.0164
     26 C          64.8856   95.6277    3.9479 C.ar    1  UNL1       -0.0065
     27 C          62.5125   94.2732    2.8123 C.3     1  UNL1        0.0738
     28 C          61.3739   93.3018    2.9128 C.ar    1  UNL1        0.0861
     29 C          60.9315   93.6379    1.5195 C.ar    1  UNL1        0.1161
     30 N          59.7188   92.8125    1.2064 N.ar    1  UNL1       -0.2181
     31 C          59.4117   91.9663    2.4061 C.ar    1  UNL1        0.1966
     32 S          58.7380   90.9730    3.3059 S.2     1  UNL1       -0.0278
     33 C          59.5282   90.4596    5.6199 C.ar    1  UNL1        0.1350
     34 N          59.7962   91.2858    4.3970 N.ar    1  UNL1       -0.1569
     35 N          60.4346   92.2687    3.4608 N.ar    1  UNL1       -0.2085
     36 H          61.8640   89.5012   11.3380 H       1  UNL1        0.1739
     37 H          67.6739   95.8912    7.9484 H       1  UNL1        0.1501
     38 C          60.9869   86.8437   11.6564 C.3     1  UNL1        0.2543
     39 O          60.1188   88.0451   11.4262 O.3     1  UNL1       -0.4553
@<TRIPOS>BOND
     1    38    39    1
     2    39     1    1
     3     1     2   ar
     4     2     3   ar
     5     3     4   ar
     6     4     5   ar
     7     5     6   ar
     8     6     7    1
     9     7     8    1
    10     8     9    2
    11     8    10    2
    12     8    11    1
    13    11    12   ar
    14    12    13   ar
    15    13    14   ar
    16    14    15   ar
    17    15    16   ar
    18    15    17    1
    19    17    18    2
    20    17    19   am
    21    19    20    1
    22    20    21    1
    23    21    22   ar
    24    22    23   ar
    25    23    24   ar
    26    24    25   ar
    27    25    26   ar
    28    25    27    1
    29    27    28    1
    30    28    29   ar
    31    29    30   ar
    32    30    31   ar
    33    31    32   ar
    34    32    33   ar
    35    33    34   ar
    36    34    35   ar
    37     6     1   ar
    38    16    11   ar
    39    26    21   ar
    40    35    28   ar
    41    33     4    1
    42    35    31   ar
    43     7    36    1
    44    19    37    1
