@<TRIPOS>MOLECULE
*****
 33 37 0 0 0
SMALL
GASTEIGER

@<TRIPOS>ATOM
      1 C          64.2085   95.6384   -1.3403 C.ar    1  UNL1        0.1056
      2 C          62.7671   96.0410   -1.4407 C.ar    1  UNL1        0.0214
      3 C          61.7533   95.4365   -0.5151 C.ar    1  UNL1        0.0379
      4 C          62.1809   94.4294    0.5111 C.ar    1  UNL1        0.1342
      5 C          63.6224   94.0268    0.6115 C.ar    1  UNL1        0.0132
      6 C          64.6362   94.6313   -0.3142 C.ar    1  UNL1        0.0171
      7 C          64.0501   93.0198    1.6376 C.3     1  UNL1        0.0330
      8 C          63.0363   92.4153    2.5633 C.3     1  UNL1        0.0448
      9 C          61.5949   92.8179    2.4629 C.3     1  UNL1        0.1351
     10 C          60.1827   93.2890    2.2784 C.3     1  UNL1        0.0418
     11 C          58.9541   92.8808    3.0362 C.3     1  UNL1        0.0251
     12 C          58.8344   91.9008    4.1654 C.3     1  UNL1        0.0951
     13 N          59.9135   91.0869    4.8159 N.am    1  UNL1       -0.2641
     14 C          59.4684   90.1892    5.9320 C.2     1  UNL1        0.3039
     15 O          58.0228   90.1483    6.3305 O.2     1  UNL1       -0.2526
     16 N          60.4688   89.3324    6.6498 N.am    1  UNL1       -0.2901
     17 C          61.3790   91.0520    4.4977 C.3     1  UNL1        0.0985
     18 C          62.1272   91.8224    3.4505 C.3     1  UNL1        0.0615
     19 O          61.1672   93.8250    1.4367 O.3     1  UNL1       -0.4828
     20 H          61.4175   89.3593    6.3884 H       1  UNL1        0.1509
     21 C          66.2361   96.8472   -3.1917 C.3     1  UNL1        0.1816
     22 S          65.2224   96.2428   -2.2659 S.O2    1  UNL1        0.0104
     23 O          66.1378   96.4878   -1.1033 O.2     1  UNL1       -0.1686
     24 O          64.3068   95.9977   -3.4287 O.2     1  UNL1       -0.1686
     25 C          60.0235   88.4347    7.7661 C.3     1  UNL1        0.0774
     26 C          58.9516   87.9578    8.7006 C.3     1  UNL1        0.0259
     27 C          60.3244   87.3567    8.7648 C.3     1  UNL1        0.0420
     28 C          61.2907   86.3874    9.3785 C.ar    1  UNL1       -0.0208
     29 C          62.2825   85.6678    8.5133 C.ar    1  UNL1       -0.0042
     30 C          63.2489   84.6984    9.1270 C.ar    1  UNL1       -0.0003
     31 C          63.2234   84.4487   10.6058 C.ar    1  UNL1       -0.0000
     32 C          62.2316   85.1683   11.4710 C.ar    1  UNL1       -0.0003
     33 C          61.2653   86.1377   10.8573 C.ar    1  UNL1       -0.0042
@<TRIPOS>BOND
     1    21    22    1
     2    22    23    2
     3    22    24    2
     4    22     1    1
     5     1     2   ar
     6     2     3   ar
     7     3     4   ar
     8     4     5   ar
     9     5     6   ar
    10     5     7    1
    11     7     8    1
    12     8     9    1
    13     9    10    1
    14    10    11    1
    15    11    12    1
    16    12    13    1
    17    13    14   am
    18    14    15    2
    19    14    16   am
    20    25    16    1
    21    25    26    1
    22    26    27    1
    23    27    28    1
    24    28    29   ar
    25    29    30   ar
    26    30    31   ar
    27    31    32   ar
    28    32    33   ar
    29    13    17    1
    30    17    18    1
    31     9    19    1
    32     6     1   ar
    33    18     9    1
    34    19     4    1
    35    27    25    1
    36    33    28   ar
    37    16    20    1
@<TRIPOS>MOLECULE
*****
 33 37 0 0 0
SMALL
GASTEIGER

@<TRIPOS>ATOM
      1 C          73.0540   81.8259    5.2324 C.ar    1  UNL1        0.1056
      2 C          72.4354   82.8357    6.1531 C.ar    1  UNL1        0.0214
      3 C          72.2133   82.4969    7.5973 C.ar    1  UNL1        0.0379
      4 C          72.6098   81.1483    8.1209 C.ar    1  UNL1        0.1342
      5 C          73.2284   80.1385    7.2002 C.ar    1  UNL1        0.0132
      6 C          73.4505   80.4774    5.7559 C.ar    1  UNL1        0.0171
      7 C          73.6249   78.7900    7.7237 C.3     1  UNL1        0.0330
      8 C          73.4029   78.4511    9.1680 C.3     1  UNL1        0.0448
      9 C          72.7843   79.4609   10.0887 C.3     1  UNL1        0.1351
     10 C          72.1599   80.5407   10.9219 C.3     1  UNL1        0.0418
     11 C          71.8130   80.5133   12.3811 C.3     1  UNL1        0.0251
     12 C          72.0048   79.3996   13.3672 C.3     1  UNL1        0.0951
     13 N          72.5908   78.0379   13.1379 N.am    1  UNL1       -0.2641
     14 C          72.6450   77.1419   14.3396 C.2     1  UNL1        0.3039
     15 O          72.1314   77.6290   15.6621 O.2     1  UNL1       -0.2526
     16 N          73.2129   75.7588   14.2189 N.am    1  UNL1       -0.2901
     17 C          73.1299   77.4539   11.8658 C.3     1  UNL1        0.0985
     18 C          73.2159   78.0872   10.5088 C.3     1  UNL1        0.0615
     19 O          72.3878   80.8095    9.5652 O.3     1  UNL1       -0.4828
     20 H          73.5500   75.4391   13.3510 H       1  UNL1        0.1509
     21 C          73.4982   82.5033    2.3438 C.3     1  UNL1        0.1816
     22 S          73.2761   82.1647    3.7881 S.O2    1  UNL1        0.0104
     23 O          72.9231   83.5951    4.0693 O.2     1  UNL1       -0.1686
     24 O          73.6291   80.7341    3.5069 O.2     1  UNL1       -0.1686
     25 C          73.2671   74.8628   15.4208 C.3     1  UNL1        0.0774
     26 C          73.6321   74.6381   16.8581 C.3     1  UNL1        0.0259
     27 C          72.9958   73.5355   16.0648 C.3     1  UNL1        0.0420
     28 C          72.4719   72.1327   15.9785 C.ar    1  UNL1       -0.0208
     29 C          72.3580   71.4553   14.6450 C.ar    1  UNL1       -0.0042
     30 C          71.8340   70.0523   14.5588 C.ar    1  UNL1       -0.0003
     31 C          71.4240   69.3269   15.8060 C.ar    1  UNL1       -0.0000
     32 C          71.5380   70.0043   17.1395 C.ar    1  UNL1       -0.0003
     33 C          72.0619   71.4071   17.2257 C.ar    1  UNL1       -0.0042
@<TRIPOS>BOND
     1    21    22    1
     2    22    23    2
     3    22    24    2
     4    22     1    1
     5     1     2   ar
     6     2     3   ar
     7     3     4   ar
     8     4     5   ar
     9     5     6   ar
    10     5     7    1
    11     7     8    1
    12     8     9    1
    13     9    10    1
    14    10    11    1
    15    11    12    1
    16    12    13    1
    17    13    14   am
    18    14    15    2
    19    14    16   am
    20    25    16    1
    21    25    26    1
    22    26    27    1
    23    27    28    1
    24    28    29   ar
    25    29    30   ar
    26    30    31   ar
    27    31    32   ar
    28    32    33   ar
    29    13    17    1
    30    17    18    1
    31     9    19    1
    32     6     1   ar
    33    18     9    1
    34    19     4    1
    35    27    25    1
    36    33    28   ar
    37    16    20    1
@<TRIPOS>MOLECULE
*****
 33 37 0 0 0
SMALL
GASTEIGER

@<TRIPOS>ATOM
      1 C          64.3342   95.7910   -2.9752 C.ar    1  UNL1        0.1056
      2 C          62.8799   96.0754   -3.2077 C.ar    1  UNL1        0.0214
      3 C          61.8504   95.5459   -2.2540 C.ar    1  UNL1        0.0379
      4 C          62.2751   94.7318   -1.0678 C.ar    1  UNL1        0.1342
      5 C          63.7295   94.4474   -0.8353 C.ar    1  UNL1        0.0132
      6 C          64.7591   94.9771   -1.7891 C.ar    1  UNL1        0.0171
      7 C          64.1543   93.6335    0.3508 C.3     1  UNL1        0.0330
      8 C          63.1248   93.1038    1.3045 C.3     1  UNL1        0.0448
      9 C          61.6704   93.3882    1.0721 C.3     1  UNL1        0.1351
     10 C          60.2462   93.7298    0.7479 C.3     1  UNL1        0.0418
     11 C          59.0010   93.3546    1.4955 C.3     1  UNL1        0.0251
     12 C          58.8726   92.5452    2.7517 C.3     1  UNL1        0.0951
     13 N          59.9574   91.9110    3.5708 N.am    1  UNL1       -0.2641
     14 C          59.5006   91.1587    4.7853 C.2     1  UNL1        0.3039
     15 O          58.0388   91.0783    5.1119 O.2     1  UNL1       -0.2526
     16 N          60.5055   90.4867    5.6734 N.am    1  UNL1       -0.2901
     17 C          61.4388   91.9296    3.3358 C.3     1  UNL1        0.0985
     18 C          62.2011   92.5871    2.2237 C.3     1  UNL1        0.0615
     19 O          61.2456   94.2022   -0.1141 O.3     1  UNL1       -0.4828
     20 H          61.4650   90.5394    5.4590 H       1  UNL1        0.1509
     21 C          66.3935   96.8503   -4.8824 C.3     1  UNL1        0.1816
     22 S          65.3639   96.3206   -3.9289 S.O2    1  UNL1        0.0104
     23 O          64.5694   95.7862   -5.0835 O.2     1  UNL1       -0.1686
     24 O          66.1583   96.8552   -2.7742 O.2     1  UNL1       -0.1686
     25 C          60.0486   89.7344    6.8881 C.3     1  UNL1        0.0774
     26 C          59.1355   88.7304    7.5269 C.3     1  UNL1        0.0259
     27 C          60.1704   89.4354    8.3529 C.3     1  UNL1        0.0420
     28 C          60.8381   89.6698    9.6754 C.ar    1  UNL1       -0.0208
     29 C          62.2121   90.2694    9.7260 C.ar    1  UNL1       -0.0042
     30 C          62.8799   90.5038   11.0486 C.ar    1  UNL1       -0.0003
     31 C          62.1737   90.1386   12.3205 C.ar    1  UNL1       -0.0000
     32 C          60.7997   89.5390   12.2699 C.ar    1  UNL1       -0.0003
     33 C          60.1319   89.3046   10.9474 C.ar    1  UNL1       -0.0042
@<TRIPOS>BOND
     1    21    22    1
     2    22    23    2
     3    22    24    2
     4    22     1    1
     5     1     2   ar
     6     2     3   ar
     7     3     4   ar
     8     4     5   ar
     9     5     6   ar
    10     5     7    1
    11     7     8    1
    12     8     9    1
    13     9    10    1
    14    10    11    1
    15    11    12    1
    16    12    13    1
    17    13    14   am
    18    14    15    2
    19    14    16   am
    20    25    16    1
    21    25    26    1
    22    26    27    1
    23    27    28    1
    24    28    29   ar
    25    29    30   ar
    26    30    31   ar
    27    31    32   ar
    28    32    33   ar
    29    13    17    1
    30    17    18    1
    31     9    19    1
    32     6     1   ar
    33    18     9    1
    34    19     4    1
    35    27    25    1
    36    33    28   ar
    37    16    20    1
@<TRIPOS>MOLECULE
*****
 33 37 0 0 0
SMALL
GASTEIGER

@<TRIPOS>ATOM
      1 C          61.0725   95.1340   -0.7417 C.ar    1  UNL1        0.1056
      2 C          59.5922   95.1547   -0.5004 C.ar    1  UNL1        0.0214
      3 C          59.0070   94.3746    0.6392 C.ar    1  UNL1        0.0379
      4 C          59.9022   93.5735    1.5377 C.ar    1  UNL1        0.1342
      5 C          61.3825   93.5528    1.2964 C.ar    1  UNL1        0.0132
      6 C          61.9677   94.3330    0.1566 C.ar    1  UNL1        0.0171
      7 C          62.2777   92.7518    2.1947 C.3     1  UNL1        0.0330
      8 C          61.6926   91.9716    3.3344 C.3     1  UNL1        0.0448
      9 C          60.2123   91.9923    3.5757 C.3     1  UNL1        0.1351
     10 C          58.7227   92.0813    3.7284 C.3     1  UNL1        0.0418
     11 C          57.8470   91.4262    4.7551 C.3     1  UNL1        0.0251
     12 C          58.2446   90.5204    5.8826 C.3     1  UNL1        0.0951
     13 N          59.6161   90.0459    6.2620 N.am    1  UNL1       -0.2641
     14 C          59.6840   89.1372    7.4534 C.2     1  UNL1        0.3039
     15 O          58.4279   88.7598    8.1813 O.2     1  UNL1       -0.2526
     16 N          61.0080   88.6057    7.9169 N.am    1  UNL1       -0.2901
     17 C          60.9287   90.3601    5.6075 C.3     1  UNL1        0.0985
     18 C          61.1940   91.2264    4.4120 C.3     1  UNL1        0.0615
     19 O          59.3171   92.7933    2.6773 O.3     1  UNL1       -0.4828
     20 H          61.8324   88.8534    7.4391 H       1  UNL1        0.1509
     21 C          62.2428   96.6943   -3.0211 C.3     1  UNL1        0.1816
     22 S          61.6577   95.9142   -1.8814 S.O2    1  UNL1        0.0104
     23 O          62.8062   96.3267   -1.0093 O.2     1  UNL1       -0.1686
     24 O          60.5091   95.5016   -2.7535 O.2     1  UNL1       -0.1686
     25 C          61.0758   87.6969    9.1084 C.3     1  UNL1        0.0774
     26 C          60.6502   86.4416    9.8105 C.3     1  UNL1        0.0259
     27 C          61.6188   87.3782   10.4698 C.3     1  UNL1        0.0420
     28 C          62.4916   87.7350   11.6364 C.ar    1  UNL1       -0.0208
     29 C          63.0275   86.6558   12.5298 C.ar    1  UNL1       -0.0042
     30 C          63.9003   87.0127   13.6964 C.ar    1  UNL1       -0.0003
     31 C          64.2371   88.4486   13.9696 C.ar    1  UNL1       -0.0000
     32 C          63.7011   89.5277   13.0762 C.ar    1  UNL1       -0.0003
     33 C          62.8284   89.1709   11.9096 C.ar    1  UNL1       -0.0042
@<TRIPOS>BOND
     1    21    22    1
     2    22    23    2
     3    22    24    2
     4    22     1    1
     5     1     2   ar
     6     2     3   ar
     7     3     4   ar
     8     4     5   ar
     9     5     6   ar
    10     5     7    1
    11     7     8    1
    12     8     9    1
    13     9    10    1
    14    10    11    1
    15    11    12    1
    16    12    13    1
    17    13    14   am
    18    14    15    2
    19    14    16   am
    20    25    16    1
    21    25    26    1
    22    26    27    1
    23    27    28    1
    24    28    29   ar
    25    29    30   ar
    26    30    31   ar
    27    31    32   ar
    28    32    33   ar
    29    13    17    1
    30    17    18    1
    31     9    19    1
    32     6     1   ar
    33    18     9    1
    34    19     4    1
    35    27    25    1
    36    33    28   ar
    37    16    20    1
