@<TRIPOS>MOLECULE
*****
 34 37 0 0 0
SMALL
GASTEIGER

@<TRIPOS>ATOM
      1 C          72.8206   80.2431   11.5005 C.ar    1  UNL1        0.0154
      2 C          73.3638   81.3250   12.3861 C.ar    1  UNL1        0.0985
      3 N          73.6270   81.0457   13.8361 N.ar    1  UNL1       -0.2423
      4 C          73.3469   79.6845   14.4006 C.ar    1  UNL1        0.0985
      5 C          72.8037   78.6025   13.5150 C.ar    1  UNL1        0.0152
      6 C          72.5405   78.8819   12.0649 C.ar    1  UNL1       -0.0188
      7 C          71.9973   77.7999   11.1793 C.3     1  UNL1        0.0311
      8 C          72.4503   79.7081    7.5855 C.ar    1  UNL1        0.1452
      9 C          72.7135   79.4288    9.0356 C.ar    1  UNL1        0.0372
     10 C          72.5574   80.5224   10.0503 C.ar    1  UNL1        0.0064
     11 C          72.1382   81.8952    9.6150 C.ar    1  UNL1        0.0300
     12 C          71.8751   82.1745    8.1650 C.ar    1  UNL1        0.1474
     13 F          71.4559   83.5474    7.7296 F       1  UNL1       -0.2039
     14 C          72.0311   81.0809    7.1502 C.ar    1  UNL1        0.1144
     15 C          71.7679   81.3602    5.7001 C.2     1  UNL1        0.2479
     16 N          70.5768   80.7499    5.0229 N.am    1  UNL1       -0.3252
     17 O          72.6959   82.2498    4.9272 O.2     1  UNL1       -0.2702
     18 H          69.9677   80.1660    5.5302 H       1  UNL1        0.1453
     19 H          70.4040   80.9332    4.0712 H       1  UNL1        0.1453
     20 C          73.6314   78.7413    5.4831 C.3     1  UNL1        0.2525
     21 O          72.6063   78.6145    6.5708 O.3     1  UNL1       -0.4712
     22 C          72.5237   77.2413   14.0795 C.ar    1  UNL1        0.0013
     23 C          71.1370   76.8862   14.5279 C.ar    1  UNL1        0.0013
     24 C          70.8569   75.5249   15.0924 C.ar    1  UNL1        0.0145
     25 C          71.9635   74.5189   15.2084 C.ar    1  UNL1        0.0479
     26 C          73.3501   74.8741   14.7600 C.ar    1  UNL1        0.0145
     27 C          73.6302   76.2353   14.1955 C.ar    1  UNL1        0.0013
     28 N          71.6834   73.1577   15.7729 N.pl3   1  UNL1       -0.3046
     29 C          72.0553   71.9314   14.9931 C.3     1  UNL1        0.1081
     30 C          71.7752   70.5701   15.5576 C.3     1  UNL1        0.0938
     31 N          71.1233   70.4352   16.9017 N.3     1  UNL1       -0.2686
     32 C          70.8433   69.0740   17.4662 C.3     1  UNL1        0.0897
     33 C          70.7514   71.6615   17.6815 C.3     1  UNL1        0.0938
     34 C          71.0315   73.0227   17.1170 C.3     1  UNL1        0.1081
@<TRIPOS>BOND
     1    20    21    1
     2    21     8    1
     3     8     9   ar
     4     9    10   ar
     5    10     1    1
     6     1     2   ar
     7     2     3   ar
     8     3     4   ar
     9     4     5   ar
    10     5    22    1
    11    22    23   ar
    12    23    24   ar
    13    24    25   ar
    14    25    28    1
    15    28    29    1
    16    29    30    1
    17    30    31    1
    18    31    32    1
    19    31    33    1
    20    33    34    1
    21    25    26   ar
    22    26    27   ar
    23     5     6   ar
    24     6     7    1
    25    10    11   ar
    26    11    12   ar
    27    12    13    1
    28    12    14   ar
    29    14    15    1
    30    15    16   am
    31    15    17    2
    32    14     8   ar
    33     6     1   ar
    34    27    22   ar
    35    34    28    1
    36    16    18    1
    37    16    19    1
@<TRIPOS>MOLECULE
*****
 34 37 0 0 0
SMALL
GASTEIGER

@<TRIPOS>ATOM
      1 C          63.0319   89.5581   12.0635 C.ar    1  UNL1        0.0154
      2 C          62.3248   90.2804   10.9552 C.ar    1  UNL1        0.0985
      3 N          61.6918   89.5045    9.8384 N.ar    1  UNL1       -0.2423
      4 C          61.7660   88.0063    9.8298 C.ar    1  UNL1        0.0985
      5 C          62.4731   87.2841   10.9381 C.ar    1  UNL1        0.0152
      6 C          63.1061   88.0600   12.0550 C.ar    1  UNL1       -0.0188
      7 C          63.8132   87.3377   13.1632 C.3     1  UNL1        0.0311
      8 C          65.2886   92.1935   13.9902 C.ar    1  UNL1        0.1452
      9 C          64.6557   91.4176   12.8734 C.ar    1  UNL1        0.0372
     10 C          63.6649   90.3340   13.1804 C.ar    1  UNL1        0.0064
     11 C          63.3071   90.0264   14.6042 C.ar    1  UNL1        0.0300
     12 C          63.9401   90.8023   15.7210 C.ar    1  UNL1        0.1474
     13 F          63.5823   90.4946   17.1449 F       1  UNL1       -0.2039
     14 C          64.9309   91.8858   15.4140 C.ar    1  UNL1        0.1144
     15 C          65.5638   92.6617   16.5308 C.2     1  UNL1        0.2479
     16 N          66.9961   93.0949   16.4255 N.am    1  UNL1       -0.3252
     17 O          64.7646   93.0044   17.7530 O.2     1  UNL1       -0.2702
     18 H          67.5206   92.8700   15.6233 H       1  UNL1        0.1453
     19 H          67.4115   93.6042   17.1585 H       1  UNL1        0.1453
     20 C          66.2773   93.9354   12.3354 C.3     1  UNL1        0.2525
     21 O          66.2794   93.2770   13.6831 O.3     1  UNL1       -0.4712
     22 C          62.5472   85.7860   10.9295 C.ar    1  UNL1        0.0013
     23 C          62.9021   85.0599    9.6659 C.ar    1  UNL1        0.0013
     24 C          62.9762   83.5617    9.6573 C.ar    1  UNL1        0.0145
     25 C          62.6955   82.7897   10.9124 C.ar    1  UNL1        0.0479
     26 C          62.3407   83.5158   12.1760 C.ar    1  UNL1        0.0145
     27 C          62.2665   85.0140   12.1846 C.ar    1  UNL1        0.0013
     28 N          62.7697   81.2915   10.9038 N.pl3   1  UNL1       -0.3046
     29 C          62.9864   80.5588    9.6131 C.3     1  UNL1        0.1081
     30 C          63.0606   79.0606    9.6045 C.3     1  UNL1        0.0938
     31 N          62.9180   78.2952   10.8867 N.3     1  UNL1       -0.2686
     32 C          62.9921   76.7971   10.8781 C.3     1  UNL1        0.0897
     33 C          62.7012   79.0281   12.1774 C.3     1  UNL1        0.0938
     34 C          62.6271   80.5262   12.1860 C.3     1  UNL1        0.1081
@<TRIPOS>BOND
     1    20    21    1
     2    21     8    1
     3     8     9   ar
     4     9    10   ar
     5    10     1    1
     6     1     2   ar
     7     2     3   ar
     8     3     4   ar
     9     4     5   ar
    10     5    22    1
    11    22    23   ar
    12    23    24   ar
    13    24    25   ar
    14    25    28    1
    15    28    29    1
    16    29    30    1
    17    30    31    1
    18    31    32    1
    19    31    33    1
    20    33    34    1
    21    25    26   ar
    22    26    27   ar
    23     5     6   ar
    24     6     7    1
    25    10    11   ar
    26    11    12   ar
    27    12    13    1
    28    12    14   ar
    29    14    15    1
    30    15    16   am
    31    15    17    2
    32    14     8   ar
    33     6     1   ar
    34    27    22   ar
    35    34    28    1
    36    16    18    1
    37    16    19    1
@<TRIPOS>MOLECULE
*****
 34 37 0 0 0
SMALL
GASTEIGER

@<TRIPOS>ATOM
      1 C          60.5337   88.3086    9.3692 C.ar    1  UNL1        0.0154
      2 C          59.6032   87.1350    9.2856 C.ar    1  UNL1        0.0985
      3 N          58.6941   86.9814    8.1024 N.ar    1  UNL1       -0.2423
      4 C          58.7154   88.0015    7.0028 C.ar    1  UNL1        0.0985
      5 C          59.6458   89.1751    7.0864 C.ar    1  UNL1        0.0152
      6 C          60.5550   89.3286    8.2696 C.ar    1  UNL1       -0.0188
      7 C          61.4854   90.5022    8.3532 C.3     1  UNL1        0.0311
      8 C          62.9227   87.4008   12.4054 C.ar    1  UNL1        0.1452
      9 C          62.0136   87.2474   11.2222 C.ar    1  UNL1        0.0372
     10 C          61.4428   88.4621   10.5524 C.ar    1  UNL1        0.0064
     11 C          61.7811   89.8303   11.0658 C.ar    1  UNL1        0.0300
     12 C          62.6902   89.9837   12.2489 C.ar    1  UNL1        0.1474
     13 F          63.0286   91.3520   12.7624 F       1  UNL1       -0.2039
     14 C          63.2610   88.7690   12.9188 C.ar    1  UNL1        0.1144
     15 C          64.1701   88.9225   14.1020 C.2     1  UNL1        0.2479
     16 N          64.1365   87.9118   15.2098 N.am    1  UNL1       -0.3252
     17 O          65.1129   90.0868   14.1774 O.2     1  UNL1       -0.2702
     18 H          63.5177   87.1476   15.1603 H       1  UNL1        0.1453
     19 H          64.7331   88.0125   15.9864 H       1  UNL1        0.1453
     20 C          62.9267   84.8296   12.7778 C.3     1  UNL1        0.2525
     21 O          63.4935   86.1861   13.0752 O.3     1  UNL1       -0.4712
     22 C          59.6672   90.1951    5.9868 C.ar    1  UNL1        0.0013
     23 C          58.4018   90.8952    5.5887 C.ar    1  UNL1        0.0013
     24 C          58.4231   91.9153    4.4891 C.ar    1  UNL1        0.0145
     25 C          59.7098   92.2352    3.7877 C.ar    1  UNL1        0.0479
     26 C          60.9753   91.5351    4.1859 C.ar    1  UNL1        0.0145
     27 C          60.9539   90.5150    5.2855 C.ar    1  UNL1        0.0013
     28 N          59.7311   93.2552    2.6882 N.pl3   1  UNL1       -0.3046
     29 C          59.2189   92.8985    1.3243 C.3     1  UNL1        0.1081
     30 C          59.2402   93.9186    0.2246 C.3     1  UNL1        0.0938
     31 N          59.7738   95.2953    0.4890 N.3     1  UNL1       -0.2686
     32 C          59.7951   96.3153   -0.6106 C.3     1  UNL1        0.0897
     33 C          60.2861   95.6520    1.8530 C.3     1  UNL1        0.0938
     34 C          60.2647   94.6320    2.9525 C.3     1  UNL1        0.1081
@<TRIPOS>BOND
     1    20    21    1
     2    21     8    1
     3     8     9   ar
     4     9    10   ar
     5    10     1    1
     6     1     2   ar
     7     2     3   ar
     8     3     4   ar
     9     4     5   ar
    10     5    22    1
    11    22    23   ar
    12    23    24   ar
    13    24    25   ar
    14    25    28    1
    15    28    29    1
    16    29    30    1
    17    30    31    1
    18    31    32    1
    19    31    33    1
    20    33    34    1
    21    25    26   ar
    22    26    27   ar
    23     5     6   ar
    24     6     7    1
    25    10    11   ar
    26    11    12   ar
    27    12    13    1
    28    12    14   ar
    29    14    15    1
    30    15    16   am
    31    15    17    2
    32    14     8   ar
    33     6     1   ar
    34    27    22   ar
    35    34    28    1
    36    16    18    1
    37    16    19    1
@<TRIPOS>MOLECULE
*****
 34 37 0 0 0
SMALL
GASTEIGER

@<TRIPOS>ATOM
      1 C          72.8634   79.8193   11.9742 C.ar    1  UNL1        0.0154
      2 C          73.1648   80.9149   12.9534 C.ar    1  UNL1        0.0985
      3 N          73.2395   80.6102   14.4202 N.ar    1  UNL1       -0.2423
      4 C          73.0128   79.2098   14.9079 C.ar    1  UNL1        0.0985
      5 C          72.7114   78.1142   13.9287 C.ar    1  UNL1        0.0152
      6 C          72.6367   78.4190   12.4618 C.ar    1  UNL1       -0.0188
      7 C          72.3353   77.3234   11.4826 C.3     1  UNL1        0.0311
      8 C          72.5018   81.8397    8.5776 C.ar    1  UNL1        0.1452
      9 C          72.5765   81.5349   10.0443 C.ar    1  UNL1        0.0372
     10 C          72.7887   80.1240   10.5074 C.ar    1  UNL1        0.0064
     11 C          72.9262   79.0179    9.5036 C.ar    1  UNL1        0.0300
     12 C          72.8515   79.3227    8.0368 C.ar    1  UNL1        0.1474
     13 F          72.9891   78.2165    7.0330 F       1  UNL1       -0.2039
     14 C          72.6393   80.7336    7.5738 C.ar    1  UNL1        0.1144
     15 C          72.5646   81.0383    6.1069 C.2     1  UNL1        0.2479
     16 N          71.4315   80.4985    5.2856 N.am    1  UNL1       -0.3252
     17 O          73.6229   81.8828    5.4615 O.2     1  UNL1       -0.2702
     18 H          70.7368   79.9441    5.7092 H       1  UNL1        0.1453
     19 H          71.3824   80.6984    4.3228 H       1  UNL1        0.1453
     20 C          71.3035   83.5411    7.0222 C.3     1  UNL1        0.2525
     21 O          72.2895   83.2505    8.1146 O.3     1  UNL1       -0.4712
     22 C          72.4848   76.7140   14.4163 C.ar    1  UNL1        0.0013
     23 C          73.6329   75.7519   14.4944 C.ar    1  UNL1        0.0013
     24 C          73.4063   74.3516   14.9820 C.ar    1  UNL1        0.0145
     25 C          72.0314   73.9133   15.3915 C.ar    1  UNL1        0.0479
     26 C          70.8832   74.8754   15.3134 C.ar    1  UNL1        0.0145
     27 C          71.1099   76.2757   14.8258 C.ar    1  UNL1        0.0013
     28 N          71.8047   72.5131   15.8791 N.pl3   1  UNL1       -0.3046
     29 C          71.2973   72.2764   17.2706 C.3     1  UNL1        0.1081
     30 C          71.0705   70.8761   17.7583 C.3     1  UNL1        0.0938
     31 N          71.3514   69.7124   16.8544 N.3     1  UNL1       -0.2686
     32 C          71.1247   68.3122   17.3420 C.3     1  UNL1        0.0897
     33 C          71.8589   69.9491   15.4628 C.3     1  UNL1        0.0938
     34 C          72.0856   71.3494   14.9752 C.3     1  UNL1        0.1081
@<TRIPOS>BOND
     1    20    21    1
     2    21     8    1
     3     8     9   ar
     4     9    10   ar
     5    10     1    1
     6     1     2   ar
     7     2     3   ar
     8     3     4   ar
     9     4     5   ar
    10     5    22    1
    11    22    23   ar
    12    23    24   ar
    13    24    25   ar
    14    25    28    1
    15    28    29    1
    16    29    30    1
    17    30    31    1
    18    31    32    1
    19    31    33    1
    20    33    34    1
    21    25    26   ar
    22    26    27   ar
    23     5     6   ar
    24     6     7    1
    25    10    11   ar
    26    11    12   ar
    27    12    13    1
    28    12    14   ar
    29    14    15    1
    30    15    16   am
    31    15    17    2
    32    14     8   ar
    33     6     1   ar
    34    27    22   ar
    35    34    28    1
    36    16    18    1
    37    16    19    1
@<TRIPOS>MOLECULE
*****
 34 37 0 0 0
SMALL
GASTEIGER

@<TRIPOS>ATOM
      1 C          63.0979   89.8704   12.4756 C.ar    1  UNL1        0.0154
      2 C          61.9983   90.5835   11.7460 C.ar    1  UNL1        0.0985
      3 N          61.0071   89.8028   10.9349 N.ar    1  UNL1       -0.2423
      4 C          61.1155   88.3089   10.8533 C.ar    1  UNL1        0.0985
      5 C          62.2151   87.5958   11.5829 C.ar    1  UNL1        0.0152
      6 C          63.2063   88.3766   12.3941 C.ar    1  UNL1       -0.0188
      7 C          64.3059   87.6635   13.1237 C.3     1  UNL1        0.0311
      8 C          66.2963   92.0131   13.4395 C.ar    1  UNL1        0.1452
      9 C          65.3051   91.2324   12.6284 C.ar    1  UNL1        0.0372
     10 C          64.0891   90.6513   13.2868 C.ar    1  UNL1        0.0064
     11 C          63.8642   90.8510   14.7563 C.ar    1  UNL1        0.0300
     12 C          64.8553   91.6317   15.5674 C.ar    1  UNL1        0.1474
     13 F          64.6305   91.8315   17.0370 F       1  UNL1       -0.2039
     14 C          66.0714   92.2128   14.9090 C.ar    1  UNL1        0.1144
     15 C          67.0626   92.9936   15.7202 C.2     1  UNL1        0.2479
     16 N          67.3331   94.4321   15.3919 N.am    1  UNL1       -0.3252
     17 O          67.7832   92.3360   16.8595 O.2     1  UNL1       -0.2702
     18 H          66.8601   94.8637   14.6441 H       1  UNL1        0.1453
     19 H          67.9836   94.9446   15.9243 H       1  UNL1        0.1453
     20 C          67.6995   92.4593   11.2990 C.3     1  UNL1        0.2525
     21 O          67.5124   92.5942   12.7811 O.3     1  UNL1       -0.4712
     22 C          62.3236   86.1020   11.5014 C.ar    1  UNL1        0.0013
     23 C          62.3280   85.2808   12.7566 C.ar    1  UNL1        0.0013
     24 C          62.4365   83.7869   12.6751 C.ar    1  UNL1        0.0145
     25 C          62.5405   83.1143   11.3384 C.ar    1  UNL1        0.0479
     26 C          62.5360   83.9356   10.0832 C.ar    1  UNL1        0.0145
     27 C          62.4276   85.4294   10.1647 C.ar    1  UNL1        0.0013
     28 N          62.6489   81.6205   11.2569 N.pl3   1  UNL1       -0.3046
     29 C          62.8913   80.9572    9.9335 C.3     1  UNL1        0.1081
     30 C          62.9998   79.4633    9.8519 C.3     1  UNL1        0.0938
     31 N          62.8659   78.6327   11.0938 N.3     1  UNL1       -0.2686
     32 C          62.9743   77.1389   11.0123 C.3     1  UNL1        0.0897
     33 C          62.6235   79.2960   12.4172 C.3     1  UNL1        0.0938
     34 C          62.5150   80.7899   12.4987 C.3     1  UNL1        0.1081
@<TRIPOS>BOND
     1    20    21    1
     2    21     8    1
     3     8     9   ar
     4     9    10   ar
     5    10     1    1
     6     1     2   ar
     7     2     3   ar
     8     3     4   ar
     9     4     5   ar
    10     5    22    1
    11    22    23   ar
    12    23    24   ar
    13    24    25   ar
    14    25    28    1
    15    28    29    1
    16    29    30    1
    17    30    31    1
    18    31    32    1
    19    31    33    1
    20    33    34    1
    21    25    26   ar
    22    26    27   ar
    23     5     6   ar
    24     6     7    1
    25    10    11   ar
    26    11    12   ar
    27    12    13    1
    28    12    14   ar
    29    14    15    1
    30    15    16   am
    31    15    17    2
    32    14     8   ar
    33     6     1   ar
    34    27    22   ar
    35    34    28    1
    36    16    18    1
    37    16    19    1
@<TRIPOS>MOLECULE
*****
 34 37 0 0 0
SMALL
GASTEIGER

@<TRIPOS>ATOM
      1 C          63.0283   89.4871   11.9298 C.ar    1  UNL1        0.0154
      2 C          62.3514   90.2015   10.7978 C.ar    1  UNL1        0.0985
      3 N          61.7461   89.4177    9.6713 N.ar    1  UNL1       -0.2423
      4 C          61.8177   87.9194    9.6766 C.ar    1  UNL1        0.0985
      5 C          62.4946   87.2049   10.8086 C.ar    1  UNL1        0.0152
      6 C          63.0999   87.9888   11.9352 C.ar    1  UNL1       -0.0188
      7 C          63.7769   87.2744   13.0671 C.3     1  UNL1        0.0311
      8 C          63.8676   90.7381   15.6014 C.ar    1  UNL1        0.1452
      9 C          63.2624   89.9543   14.4748 C.ar    1  UNL1        0.0372
     10 C          63.6336   90.2710   13.0564 C.ar    1  UNL1        0.0064
     11 C          64.6101   91.3715   12.7646 C.ar    1  UNL1        0.0300
     12 C          65.2154   92.1553   13.8912 C.ar    1  UNL1        0.1474
     13 F          66.1920   93.2559   13.5994 F       1  UNL1       -0.2039
     14 C          64.8441   91.8386   15.3096 C.ar    1  UNL1        0.1144
     15 C          65.4495   92.6225   16.4362 C.2     1  UNL1        0.2479
     16 N          66.9140   92.9466   16.4224 N.am    1  UNL1       -0.3252
     17 O          64.5903   93.0823   17.5765 O.2     1  UNL1       -0.2702
     18 H          67.4779   92.6448   15.6740 H       1  UNL1        0.1453
     19 H          67.3113   93.4610   17.1618 H       1  UNL1        0.1453
     20 C          63.1302   89.0184   17.4038 C.3     1  UNL1        0.2525
     21 O          63.4964   90.4214   17.0198 O.3     1  UNL1       -0.4712
     22 C          62.5662   85.7067   10.8140 C.ar    1  UNL1        0.0013
     23 C          62.9598   84.9702    9.5679 C.ar    1  UNL1        0.0013
     24 C          63.0315   83.4719    9.5733 C.ar    1  UNL1        0.0145
     25 C          62.7095   82.7101   10.8247 C.ar    1  UNL1        0.0479
     26 C          62.3159   83.4467   12.0708 C.ar    1  UNL1        0.0145
     27 C          62.2443   84.9449   12.0654 C.ar    1  UNL1        0.0013
     28 N          62.7811   81.2119   10.8301 N.pl3   1  UNL1       -0.3046
     29 C          63.0087   80.4673    9.5480 C.3     1  UNL1        0.1081
     30 C          63.0803   78.9690    9.5534 C.3     1  UNL1        0.0938
     31 N          62.9244   78.2153   10.8408 N.3     1  UNL1       -0.2686
     32 C          62.9960   76.7170   10.8462 C.3     1  UNL1        0.0897
     33 C          62.6968   78.9599   12.1230 C.3     1  UNL1        0.0938
     34 C          62.6252   80.4582   12.1176 C.3     1  UNL1        0.1081
@<TRIPOS>BOND
     1    20    21    1
     2    21     8    1
     3     8     9   ar
     4     9    10   ar
     5    10     1    1
     6     1     2   ar
     7     2     3   ar
     8     3     4   ar
     9     4     5   ar
    10     5    22    1
    11    22    23   ar
    12    23    24   ar
    13    24    25   ar
    14    25    28    1
    15    28    29    1
    16    29    30    1
    17    30    31    1
    18    31    32    1
    19    31    33    1
    20    33    34    1
    21    25    26   ar
    22    26    27   ar
    23     5     6   ar
    24     6     7    1
    25    10    11   ar
    26    11    12   ar
    27    12    13    1
    28    12    14   ar
    29    14    15    1
    30    15    16   am
    31    15    17    2
    32    14     8   ar
    33     6     1   ar
    34    27    22   ar
    35    34    28    1
    36    16    18    1
    37    16    19    1
@<TRIPOS>MOLECULE
*****
 34 37 0 0 0
SMALL
GASTEIGER

@<TRIPOS>ATOM
      1 C          60.5629   88.2100    9.3906 C.ar    1  UNL1        0.0154
      2 C          59.5993   87.0626    9.3199 C.ar    1  UNL1        0.0985
      3 N          58.6588   86.9435    8.1575 N.ar    1  UNL1       -0.2423
      4 C          58.6819   87.9719    7.0657 C.ar    1  UNL1        0.0985
      5 C          59.6454   89.1193    7.1363 C.ar    1  UNL1        0.0152
      6 C          60.5860   89.2384    8.2988 C.ar    1  UNL1       -0.0188
      7 C          61.5495   90.3858    8.3694 C.3     1  UNL1        0.0311
      8 C          62.8443   89.8027   12.2205 C.ar    1  UNL1        0.1452
      9 C          61.9038   89.6836   11.0581 C.ar    1  UNL1        0.0372
     10 C          61.5034   88.3291   10.5530 C.ar    1  UNL1        0.0064
     11 C          62.0435   87.0938   11.2104 C.ar    1  UNL1        0.0300
     12 C          62.9840   87.2129   12.3728 C.ar    1  UNL1        0.1474
     13 F          63.5242   85.9775   13.0302 F       1  UNL1       -0.2039
     14 C          63.3844   88.5673   12.8779 C.ar    1  UNL1        0.1144
     15 C          64.3249   88.6864   14.0404 C.2     1  UNL1        0.2479
     16 N          65.0356   89.9815   14.3005 N.am    1  UNL1       -0.3252
     17 O          64.5548   87.5104   14.9426 O.2     1  UNL1       -0.2702
     18 H          64.8847   90.7534   13.7083 H       1  UNL1        0.1453
     19 H          65.6529   90.0597   15.0634 H       1  UNL1        0.1453
     20 C          64.2633   91.9654   11.9780 C.3     1  UNL1        0.2525
     21 O          63.2447   91.1572   12.7256 O.3     1  UNL1       -0.4712
     22 C          59.6685   90.1476    6.0445 C.ar    1  UNL1        0.0013
     23 C          60.9615   90.4938    5.3676 C.ar    1  UNL1        0.0013
     24 C          60.9846   91.5222    4.2758 C.ar    1  UNL1        0.0145
     25 C          59.7147   92.2043    3.8609 C.ar    1  UNL1        0.0479
     26 C          58.4217   91.8580    4.5379 C.ar    1  UNL1        0.0145
     27 C          58.3986   90.8297    5.6297 C.ar    1  UNL1        0.0013
     28 N          59.7377   93.2326    2.7692 N.pl3   1  UNL1       -0.3046
     29 C          60.3027   94.5964    3.0353 C.3     1  UNL1        0.1081
     30 C          60.3258   95.6248    1.9435 C.3     1  UNL1        0.0938
     31 N          59.7839   95.2893    0.5856 N.3     1  UNL1       -0.2686
     32 C          59.8070   96.3176   -0.5062 C.3     1  UNL1        0.0897
     33 C          59.2190   93.9254    0.3195 C.3     1  UNL1        0.0938
     34 C          59.1959   92.8971    1.4113 C.3     1  UNL1        0.1081
@<TRIPOS>BOND
     1    20    21    1
     2    21     8    1
     3     8     9   ar
     4     9    10   ar
     5    10     1    1
     6     1     2   ar
     7     2     3   ar
     8     3     4   ar
     9     4     5   ar
    10     5    22    1
    11    22    23   ar
    12    23    24   ar
    13    24    25   ar
    14    25    28    1
    15    28    29    1
    16    29    30    1
    17    30    31    1
    18    31    32    1
    19    31    33    1
    20    33    34    1
    21    25    26   ar
    22    26    27   ar
    23     5     6   ar
    24     6     7    1
    25    10    11   ar
    26    11    12   ar
    27    12    13    1
    28    12    14   ar
    29    14    15    1
    30    15    16   am
    31    15    17    2
    32    14     8   ar
    33     6     1   ar
    34    27    22   ar
    35    34    28    1
    36    16    18    1
    37    16    19    1
