@<TRIPOS>MOLECULE
*****
 32 36 0 0 0
SMALL
GASTEIGER

@<TRIPOS>ATOM
      1 C          61.2232   88.8408   11.4018 C.ar    1  UNL1        0.1389
      2 C          62.1148   89.5805   12.3545 C.ar    1  UNL1        0.0399
      3 C          63.1875   90.4869   11.8277 C.ar    1  UNL1        0.0381
      4 C          63.3687   90.6537   10.3481 C.ar    1  UNL1        0.0830
      5 C          62.4770   89.9140    9.3953 C.ar    1  UNL1        0.0223
      6 C          61.4043   89.0076    9.9221 C.ar    1  UNL1        0.0394
      7 N          64.4414   91.5601    9.8212 N.ar    1  UNL1       -0.2422
      8 C          65.3331   92.2998   10.7740 C.ar    1  UNL1        0.1194
      9 C          65.1520   92.1331   12.2537 C.ar    1  UNL1        0.1190
     10 N          65.8736   92.7277   13.4266 N.ar    1  UNL1       -0.2120
     11 C          65.2468   92.1888   14.6782 C.ar    1  UNL1        0.2013
     12 N          64.1379   91.2611   14.2790 N.ar    1  UNL1       -0.2995
     13 C          64.0792   91.2266   12.7805 C.ar    1  UNL1        0.0829
     14 C          60.5126   88.2679    8.9693 C.ar    1  UNL1        0.0526
     15 C          60.3782   86.7777    8.8639 C.ar    1  UNL1        0.1007
     16 C          61.1118   85.7654    9.6928 C.3     1  UNL1        0.0557
     17 N          59.3814   86.4774    7.7840 N.ar    1  UNL1       -0.0817
     18 O          58.8997   87.7821    7.2219 O.2     1  UNL1       -0.3581
     19 C          59.5989   88.8886    7.9545 C.ar    1  UNL1        0.1545
     20 C          59.4163   90.3580    7.7144 C.3     1  UNL1        0.0754
     21 N          65.6571   92.5196   16.0826 N.pl3   1  UNL1       -0.2760
     22 C          64.9191   92.6390   17.3831 C.3     1  UNL1        0.1151
     23 C          67.0938   92.8180   16.3937 C.3     1  UNL1        0.1151
     24 C          58.8745   88.5141   12.4634 C.3     1  UNL1        0.2525
     25 O          60.1504   87.9344   11.9286 O.3     1  UNL1       -0.4714
     26 C          63.2444   90.5013   15.2140 C.3     1  UNL1        0.1088
     27 C          63.5195   89.0558   15.5054 C.3     1  UNL1        0.0277
     28 C          64.3622   88.2480   14.5635 C.3     1  UNL1        0.0341
     29 C          64.6374   86.8026   14.8548 C.3     1  UNL1        0.1422
     30 O          64.0698   86.1648   16.0881 O.3     1  UNL1       -0.3538
     31 C          63.2271   86.9726   17.0301 C.3     1  UNL1        0.1422
     32 C          62.9519   88.4181   16.7388 C.3     1  UNL1        0.0341
@<TRIPOS>BOND
     1    24    25    1
     2    25     1    1
     3     1     2   ar
     4     2     3   ar
     5     3     4   ar
     6     4     5   ar
     7     5     6   ar
     8     6    14    1
     9    14    15   ar
    10    15    16    1
    11    15    17   ar
    12    17    18   ar
    13    18    19   ar
    14    19    20    1
    15     4     7   ar
    16     7     8   ar
    17     8     9   ar
    18     9    10   ar
    19    10    11   ar
    20    11    21    1
    21    21    22    1
    22    21    23    1
    23    11    12   ar
    24    12    26    1
    25    26    27    1
    26    27    28    1
    27    28    29    1
    28    29    30    1
    29    30    31    1
    30    31    32    1
    31    12    13   ar
    32     6     1   ar
    33    19    14   ar
    34    13     9   ar
    35    13     3   ar
    36    32    27    1
@<TRIPOS>MOLECULE
*****
 32 36 0 0 0
SMALL
GASTEIGER

@<TRIPOS>ATOM
      1 C          62.0703   88.4112    9.8392 C.ar    1  UNL1        0.1389
      2 C          62.7225   89.0804   11.0125 C.ar    1  UNL1        0.0399
      3 C          63.1562   88.2657   12.1949 C.ar    1  UNL1        0.0381
      4 C          62.9378   86.7817   12.2040 C.ar    1  UNL1        0.0830
      5 C          62.2856   86.1125   11.0307 C.ar    1  UNL1        0.0223
      6 C          61.8518   86.9273    9.8483 C.ar    1  UNL1        0.0394
      7 N          63.3715   85.9670   13.3864 N.ar    1  UNL1       -0.2422
      8 C          64.0237   86.6362   14.5597 C.ar    1  UNL1        0.1194
      9 C          64.2422   88.1202   14.5507 C.ar    1  UNL1        0.1190
     10 N          64.8543   89.0508   15.5554 N.ar    1  UNL1       -0.2120
     11 C          64.7989   90.4405   14.9939 C.ar    1  UNL1        0.2013
     12 N          64.1525   90.3690   13.6423 N.ar    1  UNL1       -0.2995
     13 C          63.8085   88.9350   13.3683 C.ar    1  UNL1        0.0829
     14 C          61.1996   86.2580    8.6749 C.ar    1  UNL1        0.0526
     15 C          61.8619   85.3082    7.7214 C.ar    1  UNL1        0.1007
     16 C          63.2926   84.8608    7.7737 C.3     1  UNL1        0.0557
     17 N          60.8422   84.8843    6.7062 N.ar    1  UNL1       -0.0817
     18 O          59.5496   85.5721    7.0324 O.2     1  UNL1       -0.3581
     19 C          59.7706   86.4211    8.2491 C.ar    1  UNL1        0.1545
     20 C          58.7429   87.2821    8.9218 C.3     1  UNL1        0.0754
     21 N          65.3015   91.6837   15.6661 N.pl3   1  UNL1       -0.2760
     22 C          66.5336   92.5256   15.5132 C.3     1  UNL1        0.1151
     23 C          64.4901   92.3314   16.7487 C.3     1  UNL1        0.1151
     24 C          60.3952   90.0640    8.7382 C.3     1  UNL1        0.2525
     25 O          61.6365   89.2260    8.6568 O.3     1  UNL1       -0.4714
     26 C          63.8953   91.5281   12.7255 C.3     1  UNL1        0.1088
     27 C          65.0284   92.1447   11.9601 C.3     1  UNL1        0.0277
     28 C          64.7439   93.0449   10.7944 C.3     1  UNL1        0.0341
     29 C          65.8769   93.6616   10.0290 C.3     1  UNL1        0.1422
     30 O          67.2945   93.3780   10.4291 O.3     1  UNL1       -0.3538
     31 C          67.5790   92.4778   11.5947 C.3     1  UNL1        0.1422
     32 C          66.4459   91.8611   12.3603 C.3     1  UNL1        0.0341
@<TRIPOS>BOND
     1    24    25    1
     2    25     1    1
     3     1     2   ar
     4     2     3   ar
     5     3     4   ar
     6     4     5   ar
     7     5     6   ar
     8     6    14    1
     9    14    15   ar
    10    15    16    1
    11    15    17   ar
    12    17    18   ar
    13    18    19   ar
    14    19    20    1
    15     4     7   ar
    16     7     8   ar
    17     8     9   ar
    18     9    10   ar
    19    10    11   ar
    20    11    21    1
    21    21    22    1
    22    21    23    1
    23    11    12   ar
    24    12    26    1
    25    26    27    1
    26    27    28    1
    27    28    29    1
    28    29    30    1
    29    30    31    1
    30    31    32    1
    31    12    13   ar
    32     6     1   ar
    33    19    14   ar
    34    13     9   ar
    35    13     3   ar
    36    32    27    1
@<TRIPOS>MOLECULE
*****
 32 36 0 0 0
SMALL
GASTEIGER

@<TRIPOS>ATOM
      1 C          62.1008   88.4659    9.8817 C.ar    1  UNL1        0.1389
      2 C          62.7625   89.1381   11.0480 C.ar    1  UNL1        0.0399
      3 C          63.1986   88.3274   12.2323 C.ar    1  UNL1        0.0381
      4 C          62.9731   86.8446   12.2503 C.ar    1  UNL1        0.0830
      5 C          62.3114   86.1725   11.0840 C.ar    1  UNL1        0.0223
      6 C          61.8753   86.9831    9.8997 C.ar    1  UNL1        0.0394
      7 N          63.4093   86.0339   13.4346 N.ar    1  UNL1       -0.2422
      8 C          64.0710   86.7060   14.6009 C.ar    1  UNL1        0.1194
      9 C          64.2965   88.1889   14.5830 C.ar    1  UNL1        0.1190
     10 N          64.9185   89.1217   15.5795 N.ar    1  UNL1       -0.2120
     11 C          64.8667   90.5088   15.0111 C.ar    1  UNL1        0.2013
     12 N          64.2128   90.4334   13.6633 N.ar    1  UNL1       -0.2995
     13 C          63.8604   88.9996   13.3987 C.ar    1  UNL1        0.0829
     14 C          61.2135   86.3109    8.7333 C.ar    1  UNL1        0.0526
     15 C          59.7802   86.4701    8.3208 C.ar    1  UNL1        0.1007
     16 C          58.7568   87.3294    9.0022 C.3     1  UNL1        0.0557
     17 N          59.5498   85.6191    7.1073 N.ar    1  UNL1       -0.0817
     18 O          60.8408   84.9339    6.7697 O.2     1  UNL1       -0.3581
     19 C          61.8690   85.3615    7.7747 C.ar    1  UNL1        0.1545
     20 C          63.3013   84.9176    7.8141 C.3     1  UNL1        0.0754
     21 N          65.3790   91.7530   15.6741 N.pl3   1  UNL1       -0.2760
     22 C          66.6050   92.5990   15.4970 C.3     1  UNL1        0.1151
     23 C          64.5875   92.3973   16.7733 C.3     1  UNL1        0.1151
     24 C          60.4216   90.1123    8.7773 C.3     1  UNL1        0.2525
     25 O          61.6646   89.2766    8.6974 O.3     1  UNL1       -0.4714
     26 C          63.9563   91.5889   12.7418 C.3     1  UNL1        0.1088
     27 C          65.0843   92.1824   11.9511 C.3     1  UNL1        0.0277
     28 C          64.7924   93.0894   10.7927 C.3     1  UNL1        0.0341
     29 C          65.9203   93.6830   10.0019 C.3     1  UNL1        0.1422
     30 O          67.3404   93.3695   10.3697 O.3     1  UNL1       -0.3538
     31 C          67.6324   92.4625   11.5282 C.3     1  UNL1        0.1422
     32 C          66.5043   91.8689   12.3190 C.3     1  UNL1        0.0341
@<TRIPOS>BOND
     1    24    25    1
     2    25     1    1
     3     1     2   ar
     4     2     3   ar
     5     3     4   ar
     6     4     5   ar
     7     5     6   ar
     8     6    14    1
     9    14    15   ar
    10    15    16    1
    11    15    17   ar
    12    17    18   ar
    13    18    19   ar
    14    19    20    1
    15     4     7   ar
    16     7     8   ar
    17     8     9   ar
    18     9    10   ar
    19    10    11   ar
    20    11    21    1
    21    21    22    1
    22    21    23    1
    23    11    12   ar
    24    12    26    1
    25    26    27    1
    26    27    28    1
    27    28    29    1
    28    29    30    1
    29    30    31    1
    30    31    32    1
    31    12    13   ar
    32     6     1   ar
    33    19    14   ar
    34    13     9   ar
    35    13     3   ar
    36    32    27    1
@<TRIPOS>MOLECULE
*****
 32 36 0 0 0
SMALL
GASTEIGER

@<TRIPOS>ATOM
      1 C          63.9683   86.5826   13.7941 C.ar    1  UNL1        0.1389
      2 C          64.2376   87.9797   13.3195 C.ar    1  UNL1        0.0399
      3 C          63.4427   88.5523   12.1835 C.ar    1  UNL1        0.0381
      4 C          62.3785   87.7277   11.5223 C.ar    1  UNL1        0.0830
      5 C          62.1091   86.3305   11.9969 C.ar    1  UNL1        0.0223
      6 C          62.9040   85.7580   13.1328 C.ar    1  UNL1        0.0394
      7 N          61.5836   88.3002   10.3863 N.ar    1  UNL1       -0.2422
      8 C          61.8530   89.6974    9.9117 C.ar    1  UNL1        0.1194
      9 C          62.9172   90.5221   10.5730 C.ar    1  UNL1        0.1190
     10 N          63.4039   91.9190   10.3244 N.ar    1  UNL1       -0.2120
     11 C          64.4995   92.2097   11.3067 C.ar    1  UNL1        0.2013
     12 N          64.6901   90.9926   12.1624 N.ar    1  UNL1       -0.2995
     13 C          63.7121   89.9495   11.7089 C.ar    1  UNL1        0.0829
     14 C          62.6346   84.3607   13.6075 C.ar    1  UNL1        0.0526
     15 C          62.7236   83.1148   12.7769 C.ar    1  UNL1        0.1007
     16 C          63.0977   83.0474   11.3259 C.3     1  UNL1        0.0557
     17 N          62.3729   81.9482   13.6521 N.ar    1  UNL1       -0.0817
     18 O          62.0672   82.4731   15.0237 O.2     1  UNL1       -0.3581
     19 C          62.2289   83.9641   14.9960 C.ar    1  UNL1        0.1545
     20 C          62.0213   84.8950   16.1537 C.3     1  UNL1        0.0754
     21 N          65.2695   93.4925   11.4145 N.pl3   1  UNL1       -0.2760
     22 C          66.0999   94.1220   12.4936 C.3     1  UNL1        0.1151
     23 C          65.2988   94.4490   10.2594 C.3     1  UNL1        0.1151
     24 C          65.9083   85.0822   14.6514 C.3     1  UNL1        0.2525
     25 O          64.7632   86.0100   14.9300 O.3     1  UNL1       -0.4714
     26 C          65.6840   90.8445   13.2760 C.3     1  UNL1        0.1088
     27 C          65.3560   91.3568   14.6471 C.3     1  UNL1        0.0277
     28 C          64.0618   90.9732   15.3013 C.3     1  UNL1        0.0341
     29 C          63.7337   91.4854   16.6724 C.3     1  UNL1        0.1422
     30 O          64.6998   92.3813   17.3894 O.3     1  UNL1       -0.3538
     31 C          65.9940   92.7649   16.7352 C.3     1  UNL1        0.1422
     32 C          66.3221   92.2526   15.3640 C.3     1  UNL1        0.0341
@<TRIPOS>BOND
     1    24    25    1
     2    25     1    1
     3     1     2   ar
     4     2     3   ar
     5     3     4   ar
     6     4     5   ar
     7     5     6   ar
     8     6    14    1
     9    14    15   ar
    10    15    16    1
    11    15    17   ar
    12    17    18   ar
    13    18    19   ar
    14    19    20    1
    15     4     7   ar
    16     7     8   ar
    17     8     9   ar
    18     9    10   ar
    19    10    11   ar
    20    11    21    1
    21    21    22    1
    22    21    23    1
    23    11    12   ar
    24    12    26    1
    25    26    27    1
    26    27    28    1
    27    28    29    1
    28    29    30    1
    29    30    31    1
    30    31    32    1
    31    12    13   ar
    32     6     1   ar
    33    19    14   ar
    34    13     9   ar
    35    13     3   ar
    36    32    27    1
@<TRIPOS>MOLECULE
*****
 32 36 0 0 0
SMALL
GASTEIGER

@<TRIPOS>ATOM
      1 C          64.2419   89.5583   13.9338 C.ar    1  UNL1        0.1389
      2 C          63.3912   88.9795   12.8424 C.ar    1  UNL1        0.0399
      3 C          63.1065   89.7824   11.6078 C.ar    1  UNL1        0.0381
      4 C          63.6723   91.1641   11.4647 C.ar    1  UNL1        0.0830
      5 C          64.5230   91.7429   12.5561 C.ar    1  UNL1        0.0223
      6 C          64.8078   90.9400   13.7907 C.ar    1  UNL1        0.0394
      7 N          63.3875   91.9671   10.2301 N.ar    1  UNL1       -0.2422
      8 C          62.5369   91.3883    9.1386 C.ar    1  UNL1        0.1194
      9 C          61.9710   90.0065    9.2817 C.ar    1  UNL1        0.1190
     10 N          61.1051   89.1780    8.3795 N.ar    1  UNL1       -0.2120
     11 C          60.8548   87.8631    9.0565 C.ar    1  UNL1        0.2013
     12 N          61.5659   87.8788   10.3771 N.ar    1  UNL1       -0.2995
     13 C          62.2557   89.2035   10.5163 C.ar    1  UNL1        0.0829
     14 C          65.6585   91.5189   14.8822 C.ar    1  UNL1        0.0526
     15 C          67.1249   91.8208   14.7908 C.ar    1  UNL1        0.1007
     16 C          67.9982   91.5969   13.5920 C.3     1  UNL1        0.0557
     17 N          67.5648   92.3859   16.1088 N.ar    1  UNL1       -0.0817
     18 O          66.3702   92.4333   17.0148 O.2     1  UNL1       -0.3581
     19 C          65.1921   91.8974   16.2567 C.ar    1  UNL1        0.1545
     20 C          63.7931   91.7636   16.7810 C.3     1  UNL1        0.0754
     21 N          60.0370   86.7312    8.5090 N.pl3   1  UNL1       -0.2760
     22 C          60.3724   85.4364    7.8298 C.3     1  UNL1        0.1151
     23 C          58.5402   86.7772    8.5949 C.3     1  UNL1        0.1151
     24 C          64.2626   87.2788   15.1803 C.3     1  UNL1        0.2525
     25 O          64.5267   88.7553   15.1684 O.3     1  UNL1       -0.4714
     26 C          61.5840   86.7654   11.3820 C.3     1  UNL1        0.1088
     27 C          62.5108   85.6009   11.1946 C.3     1  UNL1        0.0277
     28 C          62.8659   85.1400    9.8121 C.3     1  UNL1        0.0341
     29 C          63.7926   83.9756    9.6246 C.3     1  UNL1        0.1422
     30 O          64.3643   83.2719   10.8197 O.3     1  UNL1       -0.3538
     31 C          64.0091   83.7329   12.2022 C.3     1  UNL1        0.1422
     32 C          63.0824   84.8974   12.3897 C.3     1  UNL1        0.0341
@<TRIPOS>BOND
     1    24    25    1
     2    25     1    1
     3     1     2   ar
     4     2     3   ar
     5     3     4   ar
     6     4     5   ar
     7     5     6   ar
     8     6    14    1
     9    14    15   ar
    10    15    16    1
    11    15    17   ar
    12    17    18   ar
    13    18    19   ar
    14    19    20    1
    15     4     7   ar
    16     7     8   ar
    17     8     9   ar
    18     9    10   ar
    19    10    11   ar
    20    11    21    1
    21    21    22    1
    22    21    23    1
    23    11    12   ar
    24    12    26    1
    25    26    27    1
    26    27    28    1
    27    28    29    1
    28    29    30    1
    29    30    31    1
    30    31    32    1
    31    12    13   ar
    32     6     1   ar
    33    19    14   ar
    34    13     9   ar
    35    13     3   ar
    36    32    27    1
@<TRIPOS>MOLECULE
*****
 32 36 0 0 0
SMALL
GASTEIGER

@<TRIPOS>ATOM
      1 C          63.5378   83.8437   13.0950 C.ar    1  UNL1        0.1389
      2 C          63.6370   85.3403   13.0949 C.ar    1  UNL1        0.0399
      3 C          62.8976   86.1409   12.0642 C.ar    1  UNL1        0.0381
      4 C          62.0590   85.4448   11.0336 C.ar    1  UNL1        0.0830
      5 C          61.9598   83.9482   11.0338 C.ar    1  UNL1        0.0223
      6 C          62.6992   83.1476   12.0645 C.ar    1  UNL1        0.0394
      7 N          61.3196   86.2454   10.0029 N.ar    1  UNL1       -0.2422
      8 C          61.4188   87.7421   10.0028 C.ar    1  UNL1        0.1194
      9 C          62.2575   88.4383   11.0334 C.ar    1  UNL1        0.1190
     10 N          62.5440   89.8898   11.2808 N.ar    1  UNL1       -0.2120
     11 C          63.4604   89.9862   12.4643 C.ar    1  UNL1        0.2013
     12 N          63.7403   88.5944   12.9485 N.ar    1  UNL1       -0.2995
     13 C          62.9969   87.6377   12.0641 C.ar    1  UNL1        0.0829
     14 C          62.6000   81.6508   12.0645 C.ar    1  UNL1        0.0526
     15 C          63.1383   80.7314   11.0087 C.ar    1  UNL1        0.1007
     16 C          63.8705   81.1473    9.7673 C.3     1  UNL1        0.0557
     17 N          62.8160   79.3231   11.4121 N.ar    1  UNL1       -0.0817
     18 O          62.0784   79.3721   12.7174 O.2     1  UNL1       -0.3581
     19 C          61.9449   80.8107   13.1205 C.ar    1  UNL1        0.1545
     20 C          61.2741   81.3198   14.3618 C.3     1  UNL1        0.0754
     21 N          64.0019   91.2522   13.0593 N.pl3   1  UNL1       -0.2760
     22 C          64.0393   91.8183   14.4479 C.3     1  UNL1        0.1151
     23 C          64.6804   92.2626   12.1826 C.3     1  UNL1        0.1151
     24 C          63.8538   83.0980   15.5637 C.3     1  UNL1        0.2525
     25 O          64.2772   83.0431   14.1257 O.3     1  UNL1       -0.4714
     26 C          64.6109   88.2242   14.1126 C.3     1  UNL1        0.1088
     27 C          63.9891   87.8595   15.4280 C.3     1  UNL1        0.0277
     28 C          63.4300   88.9313   16.3161 C.3     1  UNL1        0.0341
     29 C          62.8082   88.5667   17.6315 C.3     1  UNL1        0.1422
     30 O          62.7454   87.1302   18.0589 O.3     1  UNL1       -0.3538
     31 C          63.3044   86.0584   17.1708 C.3     1  UNL1        0.1422
     32 C          63.9263   86.4230   15.8553 C.3     1  UNL1        0.0341
@<TRIPOS>BOND
     1    24    25    1
     2    25     1    1
     3     1     2   ar
     4     2     3   ar
     5     3     4   ar
     6     4     5   ar
     7     5     6   ar
     8     6    14    1
     9    14    15   ar
    10    15    16    1
    11    15    17   ar
    12    17    18   ar
    13    18    19   ar
    14    19    20    1
    15     4     7   ar
    16     7     8   ar
    17     8     9   ar
    18     9    10   ar
    19    10    11   ar
    20    11    21    1
    21    21    22    1
    22    21    23    1
    23    11    12   ar
    24    12    26    1
    25    26    27    1
    26    27    28    1
    27    28    29    1
    28    29    30    1
    29    30    31    1
    30    31    32    1
    31    12    13   ar
    32     6     1   ar
    33    19    14   ar
    34    13     9   ar
    35    13     3   ar
    36    32    27    1
@<TRIPOS>MOLECULE
*****
 32 36 0 0 0
SMALL
GASTEIGER

@<TRIPOS>ATOM
      1 C          63.7925   88.4453   13.2274 C.ar    1  UNL1        0.1389
      2 C          63.3319   87.7384   11.9873 C.ar    1  UNL1        0.0399
      3 C          62.2476   88.3373   11.1414 C.ar    1  UNL1        0.0381
      4 C          61.6238   89.6433   11.5356 C.ar    1  UNL1        0.0830
      5 C          62.0845   90.3502   12.7758 C.ar    1  UNL1        0.0223
      6 C          63.1688   89.7513   13.6217 C.ar    1  UNL1        0.0394
      7 N          60.5395   90.2422   10.6898 N.ar    1  UNL1       -0.2422
      8 C          60.0789   89.5353    9.4496 C.ar    1  UNL1        0.1194
      9 C          60.7026   88.2293    9.0553 C.ar    1  UNL1        0.1190
     10 N          60.4571   87.3090    7.8965 N.ar    1  UNL1       -0.2120
     11 C          61.3897   86.1414    8.0262 C.ar    1  UNL1        0.2013
     12 N          62.2116   86.3399    9.2651 N.ar    1  UNL1       -0.2995
     13 C          61.7870   87.6303    9.9012 C.ar    1  UNL1        0.0829
     14 C          63.6294   90.4583   14.8619 C.ar    1  UNL1        0.0526
     15 C          64.5734   91.6228   14.9138 C.ar    1  UNL1        0.1007
     16 C          65.2226   92.2848   13.7347 C.3     1  UNL1        0.0557
     17 N          64.7542   92.0092   16.3518 N.ar    1  UNL1       -0.0817
     18 O          63.9219   91.0834   17.1887 O.2     1  UNL1       -0.3581
     19 C          63.2268   90.1249   16.2678 C.ar    1  UNL1        0.1545
     20 C          62.2929   89.0260   16.6805 C.3     1  UNL1        0.0754
     21 N          61.4839   84.9792    7.0825 N.pl3   1  UNL1       -0.2760
     22 C          60.4742   84.1586    6.3359 C.3     1  UNL1        0.1151
     23 C          62.8252   84.4140    6.7203 C.3     1  UNL1        0.1151
     24 C          64.5888   86.6420   14.9196 C.3     1  UNL1        0.2525
     25 O          64.8768   87.8464   14.0733 O.3     1  UNL1       -0.4714
     26 C          63.2719   85.4111    9.7780 C.3     1  UNL1        0.1088
     27 C          62.9567   84.4532   10.8884 C.3     1  UNL1        0.0277
     28 C          62.5347   84.9734   12.2305 C.3     1  UNL1        0.0341
     29 C          62.2195   84.0156   13.3409 C.3     1  UNL1        0.1422
     30 O          62.3263   82.5374   13.1093 O.3     1  UNL1       -0.3538
     31 C          62.7483   82.0172   11.7672 C.3     1  UNL1        0.1422
     32 C          63.0635   82.9751   10.6567 C.3     1  UNL1        0.0341
@<TRIPOS>BOND
     1    24    25    1
     2    25     1    1
     3     1     2   ar
     4     2     3   ar
     5     3     4   ar
     6     4     5   ar
     7     5     6   ar
     8     6    14    1
     9    14    15   ar
    10    15    16    1
    11    15    17   ar
    12    17    18   ar
    13    18    19   ar
    14    19    20    1
    15     4     7   ar
    16     7     8   ar
    17     8     9   ar
    18     9    10   ar
    19    10    11   ar
    20    11    21    1
    21    21    22    1
    22    21    23    1
    23    11    12   ar
    24    12    26    1
    25    26    27    1
    26    27    28    1
    27    28    29    1
    28    29    30    1
    29    30    31    1
    30    31    32    1
    31    12    13   ar
    32     6     1   ar
    33    19    14   ar
    34    13     9   ar
    35    13     3   ar
    36    32    27    1
@<TRIPOS>MOLECULE
*****
 32 36 0 0 0
SMALL
GASTEIGER

@<TRIPOS>ATOM
      1 C          63.9941   86.6041   14.0030 C.ar    1  UNL1        0.1389
      2 C          64.3365   88.0361   13.7165 C.ar    1  UNL1        0.0399
      3 C          63.7168   88.7352   12.5430 C.ar    1  UNL1        0.0381
      4 C          62.7545   88.0023   11.6559 C.ar    1  UNL1        0.0830
      5 C          62.4120   86.5703   11.9424 C.ar    1  UNL1        0.0223
      6 C          63.0318   85.8712   13.1159 C.ar    1  UNL1        0.0394
      7 N          62.1348   88.7013   10.4824 N.ar    1  UNL1       -0.2422
      8 C          62.4772   90.1333   10.1959 C.ar    1  UNL1        0.1194
      9 C          63.4395   90.8663   11.0830 C.ar    1  UNL1        0.1190
     10 N          63.9645   92.2710   11.0501 N.ar    1  UNL1       -0.2120
     11 C          64.9086   92.4401   12.2033 C.ar    1  UNL1        0.2013
     12 N          64.9673   91.1399   12.9489 N.ar    1  UNL1       -0.2995
     13 C          64.0593   90.1672   12.2565 C.ar    1  UNL1        0.0829
     14 C          62.6893   84.4392   13.4024 C.ar    1  UNL1        0.0526
     15 C          62.1423   83.9046   14.6927 C.ar    1  UNL1        0.1007
     16 C          61.8418   84.7080   15.9232 C.3     1  UNL1        0.0557
     17 N          61.9486   82.4253   14.5366 N.ar    1  UNL1       -0.0817
     18 O          62.3759   82.0457   13.1497 O.2     1  UNL1       -0.3581
     19 C          62.8336   83.2903   12.4488 C.ar    1  UNL1        0.1545
     20 C          63.3458   83.3718   11.0413 C.3     1  UNL1        0.0754
     21 N          65.6619   93.6900   12.5500 N.pl3   1  UNL1       -0.2760
     22 C          66.1541   94.2875   13.8349 C.3     1  UNL1        0.1151
     23 C          66.0760   94.6411   11.4666 C.3     1  UNL1        0.1151
     24 C          65.8161   85.0301   14.9790 C.3     1  UNL1        0.2525
     25 O          64.6138   85.9050   15.1765 O.3     1  UNL1       -0.4714
     26 C          65.7895   90.8613   14.1721 C.3     1  UNL1        0.1088
     27 C          67.1572   91.4618   14.3093 C.3     1  UNL1        0.0277
     28 C          68.0890   91.4812   13.1341 C.3     1  UNL1        0.0341
     29 C          69.4567   92.0816   13.2711 C.3     1  UNL1        0.1422
     30 O          69.8926   92.6627   14.5835 O.3     1  UNL1       -0.3538
     31 C          68.9607   92.6434   15.7588 C.3     1  UNL1        0.1422
     32 C          67.5930   92.0429   15.6217 C.3     1  UNL1        0.0341
@<TRIPOS>BOND
     1    24    25    1
     2    25     1    1
     3     1     2   ar
     4     2     3   ar
     5     3     4   ar
     6     4     5   ar
     7     5     6   ar
     8     6    14    1
     9    14    15   ar
    10    15    16    1
    11    15    17   ar
    12    17    18   ar
    13    18    19   ar
    14    19    20    1
    15     4     7   ar
    16     7     8   ar
    17     8     9   ar
    18     9    10   ar
    19    10    11   ar
    20    11    21    1
    21    21    22    1
    22    21    23    1
    23    11    12   ar
    24    12    26    1
    25    26    27    1
    26    27    28    1
    27    28    29    1
    28    29    30    1
    29    30    31    1
    30    31    32    1
    31    12    13   ar
    32     6     1   ar
    33    19    14   ar
    34    13     9   ar
    35    13     3   ar
    36    32    27    1
@<TRIPOS>MOLECULE
*****
 32 36 0 0 0
SMALL
GASTEIGER

@<TRIPOS>ATOM
      1 C          62.3687   89.2280    9.8989 C.ar    1  UNL1        0.1389
      2 C          63.2030   90.0379   10.8465 C.ar    1  UNL1        0.0399
      3 C          63.6513   89.4421   12.1481 C.ar    1  UNL1        0.0381
      4 C          63.2653   88.0365   12.5020 C.ar    1  UNL1        0.0830
      5 C          62.4310   87.2267   11.5544 C.ar    1  UNL1        0.0223
      6 C          61.9827   87.8225   10.2528 C.ar    1  UNL1        0.0394
      7 N          63.7136   87.4408   13.8036 N.ar    1  UNL1       -0.2422
      8 C          64.5479   88.2506   14.7513 C.ar    1  UNL1        0.1194
      9 C          64.9339   89.6563   14.3974 C.ar    1  UNL1        0.1190
     10 N          65.7425   90.6887   15.1256 N.ar    1  UNL1       -0.2120
     11 C          65.7939   91.9225   14.2741 C.ar    1  UNL1        0.2013
     12 N          65.0171   91.6527   13.0197 N.ar    1  UNL1       -0.2995
     13 C          64.4856   90.2521   13.0958 C.ar    1  UNL1        0.0829
     14 C          61.1484   87.0125    9.3051 C.ar    1  UNL1        0.0526
     15 C          61.6477   85.9287    8.3962 C.ar    1  UNL1        0.1007
     16 C          63.0689   85.4645    8.2754 C.3     1  UNL1        0.0557
     17 N          60.4762   85.3907    7.6294 N.ar    1  UNL1       -0.0817
     18 O          59.2529   86.1419    8.0643 O.2     1  UNL1       -0.3581
     19 C          59.6684   87.1443    9.1000 C.ar    1  UNL1        0.1545
     20 C          58.7627   88.1090    9.8065 C.3     1  UNL1        0.0754
     21 N          66.4984   93.2016   14.6169 N.pl3   1  UNL1       -0.2760
     22 C          66.6065   94.5421   13.9525 C.3     1  UNL1        0.1151
     23 C          67.3097   93.2971   15.8749 C.3     1  UNL1        0.1151
     24 C          60.4867   90.2225    8.4093 C.3     1  UNL1        0.2525
     25 O          61.9204   89.8238    8.5973 O.3     1  UNL1       -0.4714
     26 C          64.8084   92.6145   11.8877 C.3     1  UNL1        0.1088
     27 C          65.9797   93.0833   11.0763 C.3     1  UNL1        0.0277
     28 C          66.0224   94.4933   10.5663 C.3     1  UNL1        0.0341
     29 C          67.1936   94.9622    9.7549 C.3     1  UNL1        0.1422
     30 O          68.3222   94.0212    9.4535 O.3     1  UNL1       -0.3538
     31 C          68.2794   92.6112    9.9635 C.3     1  UNL1        0.1422
     32 C          67.1082   92.1422   10.7750 C.3     1  UNL1        0.0341
@<TRIPOS>BOND
     1    24    25    1
     2    25     1    1
     3     1     2   ar
     4     2     3   ar
     5     3     4   ar
     6     4     5   ar
     7     5     6   ar
     8     6    14    1
     9    14    15   ar
    10    15    16    1
    11    15    17   ar
    12    17    18   ar
    13    18    19   ar
    14    19    20    1
    15     4     7   ar
    16     7     8   ar
    17     8     9   ar
    18     9    10   ar
    19    10    11   ar
    20    11    21    1
    21    21    22    1
    22    21    23    1
    23    11    12   ar
    24    12    26    1
    25    26    27    1
    26    27    28    1
    27    28    29    1
    28    29    30    1
    29    30    31    1
    30    31    32    1
    31    12    13   ar
    32     6     1   ar
    33    19    14   ar
    34    13     9   ar
    35    13     3   ar
    36    32    27    1
