@<TRIPOS>MOLECULE
*****
 37 40 0 0 0
SMALL
GASTEIGER

@<TRIPOS>ATOM
      1 O          63.3863   88.8190   14.1555 O.3     1  UNL1       -0.4731
      2 C          64.1222   89.9909   13.5767 C.ar    1  UNL1        0.1681
      3 C          65.3235   90.5454   14.2833 C.ar    1  UNL1        0.0702
      4 C          66.0595   91.7172   13.7045 C.ar    1  UNL1        0.1620
      5 F          67.2609   92.2718   14.4111 F       1  UNL1       -0.2026
      6 C          65.5942   92.3347   12.4191 C.ar    1  UNL1        0.1549
      7 C          64.3928   91.7801   11.7125 C.ar    1  UNL1        0.0553
      8 C          63.6568   90.6082   12.2913 C.ar    1  UNL1        0.1753
      9 F          62.4555   90.0537   11.5847 F       1  UNL1       -0.2009
     10 S          66.3301   93.5065   11.8403 S.O2    1  UNL1        0.0773
     11 O          65.9415   94.3370   13.0275 O.2     1  UNL1       -0.1498
     12 O          66.7187   92.6761   10.6532 O.2     1  UNL1       -0.1498
     13 N          67.0661   94.6785   11.2615 N.pl3   1  UNL1       -0.1925
     14 H          67.9495   94.9291   11.6164 H       1  UNL1        0.1758
     15 C          66.4560   95.4685   10.1419 C.ar    1  UNL1        0.1977
     16 N          65.1519   96.2080   10.1931 N.ar    1  UNL1       -0.1997
     17 C          64.9327   96.8543    8.8574 C.ar    1  UNL1        0.2082
     18 N          66.1012   96.5142    7.9805 N.ar    1  UNL1       -0.1840
     19 S          67.0426   95.6577    8.7744 S.2     1  UNL1        0.0508
     20 C          63.7001   87.4296   13.6853 C.3     1  UNL1        0.2058
     21 C          63.1159   86.9228   12.4001 C.3     1  UNL1        0.0514
     22 N          63.8841   81.5177   14.1427 N.3     1  UNL1       -0.3222
     23 C          63.5442   82.8303   13.5011 C.3     1  UNL1        0.0508
     24 C          64.0640   84.1090   14.0881 C.3     1  UNL1        0.0158
     25 C          63.7240   85.4215   13.4465 C.3     1  UNL1        0.0055
     26 C          62.8644   85.4553   12.2178 C.3     1  UNL1        0.0226
     27 C          62.3446   84.1766   11.6307 C.3     1  UNL1        0.0055
     28 C          62.6845   82.8641   12.2724 C.3     1  UNL1        0.0158
     29 H          64.4718   81.6810   14.9603 H       1  UNL1        0.1188
     30 H          64.3859   80.9326   13.4748 H       1  UNL1        0.1188
     31 C          62.0920   85.9988   11.0523 C.ar    1  UNL1       -0.0226
     32 C          60.9827   86.9822   11.2808 C.ar    1  UNL1       -0.0034
     33 C          60.2103   87.5257   10.1154 C.ar    1  UNL1        0.0111
     34 C          60.5474   87.0856    8.7216 C.ar    1  UNL1        0.0577
     35 CL         59.7751   87.6291    7.5561 Cl      1  UNL1       -0.0822
     36 C          61.6568   86.1022    8.4931 C.ar    1  UNL1        0.0111
     37 C          62.4290   85.5588    9.6585 C.ar    1  UNL1       -0.0034
@<TRIPOS>BOND
     1    23    22    1
     2    23    24    1
     3    24    25    1
     4    25    26    1
     5    26    21    1
     6    21    20    1
     7    20     1    1
     8     1     2    1
     9     2     3   ar
    10     3     4   ar
    11     4     5    1
    12     4     6   ar
    13     6    10    1
    14    10    11    2
    15    10    12    2
    16    10    13    1
    17    13    15    1
    18    15    16   ar
    19    16    17   ar
    20    17    18   ar
    21    18    19   ar
    22     6     7   ar
    23     7     8   ar
    24     8     9    1
    25    26    31    1
    26    31    32   ar
    27    32    33   ar
    28    33    34   ar
    29    34    35    1
    30    34    36   ar
    31    36    37   ar
    32    26    27    1
    33    27    28    1
    34    28    23    1
    35     8     2   ar
    36    37    31   ar
    37    19    15   ar
    38    22    29    1
    39    22    30    1
    40    13    14    1
@<TRIPOS>MOLECULE
*****
 37 40 0 0 0
SMALL
GASTEIGER

@<TRIPOS>ATOM
      1 O          64.2332   89.3894   15.6801 O.3     1  UNL1       -0.4731
      2 C          63.9192   87.9272   15.5652 C.ar    1  UNL1        0.1681
      3 C          64.2414   87.1880   14.3004 C.ar    1  UNL1        0.0702
      4 C          63.9273   85.7258   14.1855 C.ar    1  UNL1        0.1620
      5 F          64.2496   84.9865   12.9206 F       1  UNL1       -0.2026
      6 C          63.2911   85.0026   15.3354 C.ar    1  UNL1        0.1549
      7 C          62.9688   85.7419   16.6003 C.ar    1  UNL1        0.0553
      8 C          63.2829   87.2041   16.7152 C.ar    1  UNL1        0.1753
      9 F          62.9606   87.9433   17.9800 F       1  UNL1       -0.2009
     10 S          62.9770   83.5404   15.2205 S.O2    1  UNL1        0.0773
     11 O          64.4011   83.2082   15.5550 O.2     1  UNL1       -0.1498
     12 O          61.5531   83.8725   14.8860 O.2     1  UNL1       -0.1498
     13 N          62.6630   82.0781   15.1056 N.pl3   1  UNL1       -0.1925
     14 H          62.4223   81.5617   15.9085 H       1  UNL1        0.1758
     15 C          62.7157   81.4027   13.7673 C.ar    1  UNL1        0.1977
     16 N          63.1049   82.0465   12.4696 N.ar    1  UNL1       -0.1997
     17 C          63.0182   81.0067   11.3919 C.ar    1  UNL1        0.2082
     18 N          62.5754   79.7203   12.0236 N.ar    1  UNL1       -0.1840
     19 S          62.3885   79.9651   13.4917 S.2     1  UNL1        0.0508
     20 C          63.5533   90.3757   14.7774 C.3     1  UNL1        0.2058
     21 C          63.2457   90.0045   13.3571 C.3     1  UNL1        0.0514
     22 N          66.7820   94.1051   11.4803 N.3     1  UNL1       -0.3222
     23 C          65.7794   93.0178   11.7306 C.3     1  UNL1        0.0508
     24 C          65.6008   92.4664   13.1141 C.3     1  UNL1        0.0158
     25 C          64.5982   91.3791   13.3644 C.3     1  UNL1        0.0055
     26 C          63.7743   90.8432   12.2313 C.3     1  UNL1        0.0226
     27 C          63.9529   91.3947   10.8479 C.3     1  UNL1        0.0055
     28 C          64.9555   92.4819   10.5975 C.3     1  UNL1        0.0158
     29 H          67.2481   94.3458   12.3550 H       1  UNL1        0.1188
     30 H          66.3059   94.9281   11.1111 H       1  UNL1        0.1188
     31 C          62.7667   90.0161   11.4892 C.ar    1  UNL1       -0.0226
     32 C          62.8287   88.5189   11.5579 C.ar    1  UNL1       -0.0034
     33 C          61.8212   87.6918   10.8157 C.ar    1  UNL1        0.0111
     34 C          60.7518   88.3619   10.0049 C.ar    1  UNL1        0.0577
     35 CL         59.7443   87.5347    9.2627 Cl      1  UNL1       -0.0822
     36 C          60.6899   89.8590    9.9361 C.ar    1  UNL1        0.0111
     37 C          61.6974   90.6860   10.6783 C.ar    1  UNL1       -0.0034
@<TRIPOS>BOND
     1    23    22    1
     2    23    24    1
     3    24    25    1
     4    25    26    1
     5    26    21    1
     6    21    20    1
     7    20     1    1
     8     1     2    1
     9     2     3   ar
    10     3     4   ar
    11     4     5    1
    12     4     6   ar
    13     6    10    1
    14    10    11    2
    15    10    12    2
    16    10    13    1
    17    13    15    1
    18    15    16   ar
    19    16    17   ar
    20    17    18   ar
    21    18    19   ar
    22     6     7   ar
    23     7     8   ar
    24     8     9    1
    25    26    31    1
    26    31    32   ar
    27    32    33   ar
    28    33    34   ar
    29    34    35    1
    30    34    36   ar
    31    36    37   ar
    32    26    27    1
    33    27    28    1
    34    28    23    1
    35     8     2   ar
    36    37    31   ar
    37    19    15   ar
    38    22    29    1
    39    22    30    1
    40    13    14    1
@<TRIPOS>MOLECULE
*****
 37 40 0 0 0
SMALL
GASTEIGER

@<TRIPOS>ATOM
      1 O          62.5929   88.9832   13.1629 O.3     1  UNL1       -0.4731
      2 C          63.5007   90.1163   12.7860 C.ar    1  UNL1        0.1681
      3 C          63.2963   90.8415   11.4890 C.ar    1  UNL1        0.0702
      4 C          64.2040   91.9746   11.1121 C.ar    1  UNL1        0.1620
      5 F          63.9996   92.6998    9.8150 F       1  UNL1       -0.2026
      6 C          65.3163   92.3825   12.0321 C.ar    1  UNL1        0.1549
      7 C          65.5207   91.6572   13.3292 C.ar    1  UNL1        0.0553
      8 C          64.6129   90.5241   13.7061 C.ar    1  UNL1        0.1753
      9 F          64.8173   89.7989   15.0031 F       1  UNL1       -0.2009
     10 S          66.2240   93.5155   11.6553 S.O2    1  UNL1        0.0773
     11 O          66.6166   92.7852   10.4051 O.2     1  UNL1       -0.1498
     12 O          65.8315   94.2458   12.9052 O.2     1  UNL1       -0.1498
     13 N          67.1319   94.6486   11.2783 N.pl3   1  UNL1       -0.1925
     14 H          67.9091   94.8652   11.8424 H       1  UNL1        0.1758
     15 C          66.8554   95.4515   10.0419 C.ar    1  UNL1        0.1977
     16 N          67.7973   95.6520    8.8918 N.ar    1  UNL1       -0.1997
     17 C          67.1126   96.5194    7.8775 C.ar    1  UNL1        0.2082
     18 N          65.7475   96.8550    8.4007 N.ar    1  UNL1       -0.1840
     19 S          65.5885   96.1950    9.7384 S.2     1  UNL1        0.0508
     20 C          61.7414   88.3250   12.1181 C.3     1  UNL1        0.2058
     21 C          62.3806   87.5060   11.0362 C.3     1  UNL1        0.0514
     22 N          58.6796   88.7456    6.8400 N.3     1  UNL1       -0.3222
     23 C          59.6440   88.1863    7.8436 C.3     1  UNL1        0.0508
     24 C          60.2193   89.0744    8.9066 C.3     1  UNL1        0.0158
     25 C          61.1837   88.5151    9.9102 C.3     1  UNL1        0.0055
     26 C          61.5727   87.0677    9.8508 C.3     1  UNL1        0.0226
     27 C          60.9974   86.1796    8.7877 C.3     1  UNL1        0.0055
     28 C          60.0330   86.7388    7.7841 C.3     1  UNL1        0.0158
     29 H          58.5300   89.7368    7.0280 H       1  UNL1        0.1188
     30 H          57.7915   88.2487    6.9084 H       1  UNL1        0.1188
     31 C          62.2423   85.7724   10.2030 C.ar    1  UNL1       -0.0226
     32 C          62.0614   85.1821   11.5700 C.ar    1  UNL1       -0.0034
     33 C          62.7310   83.8868   11.9222 C.ar    1  UNL1        0.0111
     34 C          63.5815   83.1821   10.9074 C.ar    1  UNL1        0.0577
     35 CL         64.2511   81.8868   11.2596 Cl      1  UNL1       -0.0822
     36 C          63.7624   83.7724    9.5403 C.ar    1  UNL1        0.0111
     37 C          63.0928   85.0676    9.1882 C.ar    1  UNL1       -0.0034
@<TRIPOS>BOND
     1    23    22    1
     2    23    24    1
     3    24    25    1
     4    25    26    1
     5    26    21    1
     6    21    20    1
     7    20     1    1
     8     1     2    1
     9     2     3   ar
    10     3     4   ar
    11     4     5    1
    12     4     6   ar
    13     6    10    1
    14    10    11    2
    15    10    12    2
    16    10    13    1
    17    13    15    1
    18    15    16   ar
    19    16    17   ar
    20    17    18   ar
    21    18    19   ar
    22     6     7   ar
    23     7     8   ar
    24     8     9    1
    25    26    31    1
    26    31    32   ar
    27    32    33   ar
    28    33    34   ar
    29    34    35    1
    30    34    36   ar
    31    36    37   ar
    32    26    27    1
    33    27    28    1
    34    28    23    1
    35     8     2   ar
    36    37    31   ar
    37    19    15   ar
    38    22    29    1
    39    22    30    1
    40    13    14    1
@<TRIPOS>MOLECULE
*****
 37 40 0 0 0
SMALL
GASTEIGER

@<TRIPOS>ATOM
      1 O          60.9776   88.7700   11.9447 O.3     1  UNL1       -0.4731
      2 C          62.1375   89.7206   11.9142 C.ar    1  UNL1        0.1681
      3 C          63.0917   89.7768   13.0703 C.ar    1  UNL1        0.0702
      4 C          64.2516   90.7274   13.0398 C.ar    1  UNL1        0.1620
      5 F          65.2058   90.7837   14.1959 F       1  UNL1       -0.2026
      6 C          64.4574   91.6218   11.8533 C.ar    1  UNL1        0.1549
      7 C          63.5032   91.5655   10.6972 C.ar    1  UNL1        0.0553
      8 C          62.3433   90.6149   10.7277 C.ar    1  UNL1        0.1753
      9 F          61.3891   90.5587    9.5717 F       1  UNL1       -0.2009
     10 S          65.6173   92.5723   11.8228 S.O2    1  UNL1        0.0773
     11 O          65.9423   92.1310   10.4264 O.2     1  UNL1       -0.1498
     12 O          65.2924   93.0136   13.2191 O.2     1  UNL1       -0.1498
     13 N          66.7773   93.5229   11.7923 N.pl3   1  UNL1       -0.1925
     14 H          67.4982   93.4415   12.4578 H       1  UNL1        0.1758
     15 C          66.8388   94.5976   10.7477 C.ar    1  UNL1        0.1977
     16 N          67.8121   94.6650    9.6083 N.ar    1  UNL1       -0.1997
     17 C          67.5127   95.9027    8.8154 C.ar    1  UNL1        0.2082
     18 N          66.3544   96.6002    9.4648 N.ar    1  UNL1       -0.1840
     19 S          65.9379   95.7936   10.6590 S.2     1  UNL1        0.0508
     20 C          60.8742   87.6798   10.9198 C.3     1  UNL1        0.2058
     21 C          61.2650   86.2761   11.2757 C.3     1  UNL1        0.0514
     22 N          62.4973   84.7599    5.8883 N.3     1  UNL1       -0.3222
     23 C          62.3555   84.9917    7.3635 C.3     1  UNL1        0.0508
     24 C          61.3438   85.9741    7.8745 C.3     1  UNL1        0.0158
     25 C          61.2020   86.2059    9.3497 C.3     1  UNL1        0.0055
     26 C          62.0720   85.4553   10.3138 C.3     1  UNL1        0.0226
     27 C          63.0838   84.4730    9.8028 C.3     1  UNL1        0.0055
     28 C          63.2255   84.2412    8.3276 C.3     1  UNL1        0.0158
     29 H          61.8329   85.3489    5.3862 H       1  UNL1        0.1188
     30 H          62.3089   83.7797    5.6785 H       1  UNL1        0.1188
     31 C          62.6618   84.9898   11.6121 C.ar    1  UNL1       -0.0226
     32 C          63.2464   85.9851   12.5700 C.ar    1  UNL1       -0.0034
     33 C          63.8362   85.5195   13.8682 C.ar    1  UNL1        0.0111
     34 C          63.8413   84.0586   14.2085 C.ar    1  UNL1        0.0577
     35 CL         64.4310   83.5930   15.5068 Cl      1  UNL1       -0.0822
     36 C          63.2566   83.0633   13.2507 C.ar    1  UNL1        0.0111
     37 C          62.6669   83.5289   11.9525 C.ar    1  UNL1       -0.0034
@<TRIPOS>BOND
     1    23    22    1
     2    23    24    1
     3    24    25    1
     4    25    26    1
     5    26    21    1
     6    21    20    1
     7    20     1    1
     8     1     2    1
     9     2     3   ar
    10     3     4   ar
    11     4     5    1
    12     4     6   ar
    13     6    10    1
    14    10    11    2
    15    10    12    2
    16    10    13    1
    17    13    15    1
    18    15    16   ar
    19    16    17   ar
    20    17    18   ar
    21    18    19   ar
    22     6     7   ar
    23     7     8   ar
    24     8     9    1
    25    26    31    1
    26    31    32   ar
    27    32    33   ar
    28    33    34   ar
    29    34    35    1
    30    34    36   ar
    31    36    37   ar
    32    26    27    1
    33    27    28    1
    34    28    23    1
    35     8     2   ar
    36    37    31   ar
    37    19    15   ar
    38    22    29    1
    39    22    30    1
    40    13    14    1
@<TRIPOS>MOLECULE
*****
 37 40 0 0 0
SMALL
GASTEIGER

@<TRIPOS>ATOM
      1 O          63.5264   88.7685   16.6245 O.3     1  UNL1       -0.4731
      2 C          63.4408   87.3315   16.2031 C.ar    1  UNL1        0.1681
      3 C          63.9501   86.9135   14.8555 C.ar    1  UNL1        0.0702
      4 C          63.8645   85.4765   14.4341 C.ar    1  UNL1        0.1620
      5 F          64.3739   85.0585   13.0865 F       1  UNL1       -0.2026
      6 C          63.2696   84.4575   15.3602 C.ar    1  UNL1        0.1549
      7 C          62.7602   84.8755   16.7078 C.ar    1  UNL1        0.0553
      8 C          62.8458   86.3125   17.1292 C.ar    1  UNL1        0.1753
      9 F          62.3365   86.7305   18.4767 F       1  UNL1       -0.2009
     10 S          63.1840   83.0205   14.9387 S.O2    1  UNL1        0.0773
     11 O          61.7454   83.2167   14.5616 O.2     1  UNL1       -0.1498
     12 O          64.6224   82.8242   15.3159 O.2     1  UNL1       -0.1498
     13 N          63.0984   81.5834   14.5173 N.pl3   1  UNL1       -0.1925
     14 H          63.0499   80.8730   15.1972 H       1  UNL1        0.1758
     15 C          63.0866   81.2287   13.0599 C.ar    1  UNL1        0.1977
     16 N          62.5787   79.9473   12.4684 N.ar    1  UNL1       -0.1997
     17 C          62.7588   80.0197   10.9810 C.ar    1  UNL1        0.2082
     18 N          63.3781   81.3460   10.6532 N.ar    1  UNL1       -0.1840
     19 S          63.5807   82.0932   11.9381 S.2     1  UNL1        0.0508
     20 C          63.5046   89.8557   15.5913 C.3     1  UNL1        0.2058
     21 C          64.7816   90.2971   14.9399 C.3     1  UNL1        0.0514
     22 N          62.3838   90.8556    9.7649 N.3     1  UNL1       -0.3222
     23 C          63.1718   90.8890   11.0408 C.3     1  UNL1        0.0508
     24 C          62.7982   89.9837   12.1769 C.3     1  UNL1        0.0158
     25 C          63.5862   90.0171   13.4529 C.3     1  UNL1        0.0055
     26 C          64.7477   90.9559   13.5927 C.3     1  UNL1        0.0226
     27 C          65.1212   91.8613   12.4566 C.3     1  UNL1        0.0055
     28 C          64.3332   91.8278   11.1807 C.3     1  UNL1        0.0158
     29 H          61.6370   90.1653    9.8445 H       1  UNL1        0.1188
     30 H          62.9993   90.6030    8.9917 H       1  UNL1        0.1188
     31 C          65.9210   91.6660   14.2004 C.ar    1  UNL1       -0.0226
     32 C          67.2510   91.6460   13.5071 C.ar    1  UNL1       -0.0034
     33 C          68.4243   92.3561   14.1148 C.ar    1  UNL1        0.0111
     34 C          68.2675   93.0860   15.4158 C.ar    1  UNL1        0.0577
     35 CL         69.4408   93.7960   16.0235 Cl      1  UNL1       -0.0822
     36 C          66.9375   93.1059   16.1091 C.ar    1  UNL1        0.0111
     37 C          65.7643   92.3959   15.5014 C.ar    1  UNL1       -0.0034
@<TRIPOS>BOND
     1    23    22    1
     2    23    24    1
     3    24    25    1
     4    25    26    1
     5    26    21    1
     6    21    20    1
     7    20     1    1
     8     1     2    1
     9     2     3   ar
    10     3     4   ar
    11     4     5    1
    12     4     6   ar
    13     6    10    1
    14    10    11    2
    15    10    12    2
    16    10    13    1
    17    13    15    1
    18    15    16   ar
    19    16    17   ar
    20    17    18   ar
    21    18    19   ar
    22     6     7   ar
    23     7     8   ar
    24     8     9    1
    25    26    31    1
    26    31    32   ar
    27    32    33   ar
    28    33    34   ar
    29    34    35    1
    30    34    36   ar
    31    36    37   ar
    32    26    27    1
    33    27    28    1
    34    28    23    1
    35     8     2   ar
    36    37    31   ar
    37    19    15   ar
    38    22    29    1
    39    22    30    1
    40    13    14    1
@<TRIPOS>MOLECULE
*****
 37 40 0 0 0
SMALL
GASTEIGER

@<TRIPOS>ATOM
      1 O          61.4496   86.8989   11.1616 O.3     1  UNL1       -0.4731
      2 C          62.2388   88.1444   11.4368 C.ar    1  UNL1        0.1681
      3 C          63.1244   88.2195   12.6451 C.ar    1  UNL1        0.0702
      4 C          63.9136   89.4650   12.9202 C.ar    1  UNL1        0.1620
      5 F          64.7993   89.5401   14.1286 F       1  UNL1       -0.2026
      6 C          63.8173   90.6355   11.9872 C.ar    1  UNL1        0.1549
      7 C          62.9316   90.5604   10.7788 C.ar    1  UNL1        0.0553
      8 C          62.1424   89.3149   10.5036 C.ar    1  UNL1        0.1753
      9 F          61.2568   89.2398    9.2953 F       1  UNL1       -0.2009
     10 S          64.6065   91.8810   12.2624 S.O2    1  UNL1        0.0773
     11 O          64.1083   91.8841   13.6773 O.2     1  UNL1       -0.1498
     12 O          65.1047   91.8779   10.8476 O.2     1  UNL1       -0.1498
     13 N          65.3958   93.1266   12.5376 N.pl3   1  UNL1       -0.1925
     14 H          65.1461   93.9737   12.1026 H       1  UNL1        0.1758
     15 C          66.5653   93.0813   13.4756 C.ar    1  UNL1        0.1977
     16 N          66.8106   94.0138   14.6247 N.ar    1  UNL1       -0.1997
     17 C          68.0918   93.6045   15.2886 C.ar    1  UNL1        0.2082
     18 N          68.6385   92.4189   14.5500 N.ar    1  UNL1       -0.1840
     19 S          67.6950   92.0956   13.4295 S.2     1  UNL1        0.0508
     20 C          62.1520   85.5805   11.0259 C.3     1  UNL1        0.2058
     21 C          63.0968   85.1203   12.0962 C.3     1  UNL1        0.0514
     22 N          62.9796   79.5264   10.8566 N.3     1  UNL1       -0.3222
     23 C          63.0104   80.9151   11.4228 C.3     1  UNL1        0.0508
     24 C          63.0272   82.0999   10.5031 C.3     1  UNL1        0.0158
     25 C          63.0581   83.4886   11.0693 C.3     1  UNL1        0.0055
     26 C          63.0722   83.6925   12.5553 C.3     1  UNL1        0.0226
     27 C          63.0554   82.5077   13.4750 C.3     1  UNL1        0.0055
     28 C          63.0245   81.1191   12.9088 C.3     1  UNL1        0.0158
     29 H          62.9736   79.5747    9.8378 H       1  UNL1        0.1188
     30 H          62.1394   79.0463   11.1792 H       1  UNL1        0.1188
     31 C          63.0948   84.3923   13.8819 C.ar    1  UNL1       -0.0226
     32 C          64.2149   85.3328   14.2146 C.ar    1  UNL1       -0.0034
     33 C          64.2375   86.0326   15.5412 C.ar    1  UNL1        0.0111
     34 C          63.1400   85.7918   16.5349 C.ar    1  UNL1        0.0577
     35 CL         63.1627   86.4917   17.8615 Cl      1  UNL1       -0.0822
     36 C          62.0199   84.8513   16.2022 C.ar    1  UNL1        0.0111
     37 C          61.9973   84.1516   14.8756 C.ar    1  UNL1       -0.0034
@<TRIPOS>BOND
     1    23    22    1
     2    23    24    1
     3    24    25    1
     4    25    26    1
     5    26    21    1
     6    21    20    1
     7    20     1    1
     8     1     2    1
     9     2     3   ar
    10     3     4   ar
    11     4     5    1
    12     4     6   ar
    13     6    10    1
    14    10    11    2
    15    10    12    2
    16    10    13    1
    17    13    15    1
    18    15    16   ar
    19    16    17   ar
    20    17    18   ar
    21    18    19   ar
    22     6     7   ar
    23     7     8   ar
    24     8     9    1
    25    26    31    1
    26    31    32   ar
    27    32    33   ar
    28    33    34   ar
    29    34    35    1
    30    34    36   ar
    31    36    37   ar
    32    26    27    1
    33    27    28    1
    34    28    23    1
    35     8     2   ar
    36    37    31   ar
    37    19    15   ar
    38    22    29    1
    39    22    30    1
    40    13    14    1
@<TRIPOS>MOLECULE
*****
 37 40 0 0 0
SMALL
GASTEIGER

@<TRIPOS>ATOM
      1 O          61.6200   86.9077   11.5459 O.3     1  UNL1       -0.4731
      2 C          62.3749   88.2017   11.6193 C.ar    1  UNL1        0.1681
      3 C          63.3135   88.4588   12.7608 C.ar    1  UNL1        0.0702
      4 C          64.0684   89.7528   12.8342 C.ar    1  UNL1        0.1620
      5 F          65.0071   90.0099   13.9758 F       1  UNL1       -0.2026
      6 C          63.8848   90.7899   11.7662 C.ar    1  UNL1        0.1549
      7 C          62.9462   90.5329   10.6246 C.ar    1  UNL1        0.0553
      8 C          62.1913   89.2388   10.5512 C.ar    1  UNL1        0.1753
      9 F          61.2527   88.9818    9.4097 F       1  UNL1       -0.2009
     10 S          64.6398   92.0840   11.8396 S.O2    1  UNL1        0.0773
     11 O          64.8835   92.0258   10.3606 O.2     1  UNL1       -0.1498
     12 O          64.3961   92.1423   13.3185 O.2     1  UNL1       -0.1498
     13 N          65.3947   93.3781   11.9130 N.pl3   1  UNL1       -0.1925
     14 H          65.1504   94.0531   12.5867 H       1  UNL1        0.1758
     15 C          66.5220   93.6438   10.9597 C.ar    1  UNL1        0.1977
     16 N          67.6389   92.6984   10.6297 N.ar    1  UNL1       -0.1997
     17 C          68.5375   93.3717    9.6351 C.ar    1  UNL1        0.2082
     18 N          67.9760   94.7331    9.3504 N.ar    1  UNL1       -0.1840
     19 S          66.7303   94.9012   10.1690 S.2     1  UNL1        0.0508
     20 C          62.3487   85.6298   11.2527 C.3     1  UNL1        0.2058
     21 C          63.3215   85.0752   12.2507 C.3     1  UNL1        0.0514
     22 N          62.8768   79.4541   11.2268 N.3     1  UNL1       -0.3222
     23 C          62.9695   80.8611   11.7386 C.3     1  UNL1        0.0508
     24 C          63.1447   81.9989   10.7771 C.3     1  UNL1        0.0158
     25 C          63.2373   83.4059   11.2889 C.3     1  UNL1        0.0055
     26 C          63.1548   83.6749   12.7622 C.3     1  UNL1        0.0226
     27 C          62.9797   82.5371   13.7237 C.3     1  UNL1        0.0055
     28 C          62.8870   81.1301   13.2119 C.3     1  UNL1        0.0158
     29 H          62.9511   79.4568   10.2095 H       1  UNL1        0.1188
     30 H          61.9810   79.0509   11.5011 H       1  UNL1        0.1188
     31 C          63.1302   84.4303   14.0580 C.ar    1  UNL1       -0.0226
     32 C          62.0026   84.2234   15.0253 C.ar    1  UNL1       -0.0034
     33 C          61.9780   84.9788   16.3211 C.ar    1  UNL1        0.0111
     34 C          63.0810   85.9410   16.6493 C.ar    1  UNL1        0.0577
     35 CL         63.0563   86.6963   17.9450 Cl      1  UNL1       -0.0822
     36 C          64.2085   86.1478   15.6819 C.ar    1  UNL1        0.0111
     37 C          64.2331   85.3924   14.3863 C.ar    1  UNL1       -0.0034
@<TRIPOS>BOND
     1    23    22    1
     2    23    24    1
     3    24    25    1
     4    25    26    1
     5    26    21    1
     6    21    20    1
     7    20     1    1
     8     1     2    1
     9     2     3   ar
    10     3     4   ar
    11     4     5    1
    12     4     6   ar
    13     6    10    1
    14    10    11    2
    15    10    12    2
    16    10    13    1
    17    13    15    1
    18    15    16   ar
    19    16    17   ar
    20    17    18   ar
    21    18    19   ar
    22     6     7   ar
    23     7     8   ar
    24     8     9    1
    25    26    31    1
    26    31    32   ar
    27    32    33   ar
    28    33    34   ar
    29    34    35    1
    30    34    36   ar
    31    36    37   ar
    32    26    27    1
    33    27    28    1
    34    28    23    1
    35     8     2   ar
    36    37    31   ar
    37    19    15   ar
    38    22    29    1
    39    22    30    1
    40    13    14    1
@<TRIPOS>MOLECULE
*****
 37 40 0 0 0
SMALL
GASTEIGER

@<TRIPOS>ATOM
      1 O          62.9883   90.0235   11.2245 O.3     1  UNL1       -0.4731
      2 C          63.1160   88.6917   11.9026 C.ar    1  UNL1        0.1681
      3 C          63.8012   88.5901   13.2330 C.ar    1  UNL1        0.0702
      4 C          63.9289   87.2583   13.9112 C.ar    1  UNL1        0.1620
      5 F          64.6141   87.1567   15.2417 F       1  UNL1       -0.2026
      6 C          63.3713   86.0280   13.2589 C.ar    1  UNL1        0.1549
      7 C          62.6860   86.1296   11.9284 C.ar    1  UNL1        0.0553
      8 C          62.5584   87.4614   11.2503 C.ar    1  UNL1        0.1753
      9 F          61.8731   87.5630    9.9198 F       1  UNL1       -0.2009
     10 S          63.4989   84.6962   13.9371 S.O2    1  UNL1        0.0773
     11 O          62.0336   84.7187   14.2571 O.2     1  UNL1       -0.1498
     12 O          64.9642   84.6737   13.6170 O.2     1  UNL1       -0.1498
     13 N          63.6266   83.3643   14.6152 N.pl3   1  UNL1       -0.1925
     14 H          64.0292   83.3049   15.5117 H       1  UNL1        0.1758
     15 C          63.1407   82.1230   13.9275 C.ar    1  UNL1        0.1977
     16 N          62.2133   81.0979   14.5099 N.ar    1  UNL1       -0.1997
     17 C          61.9962   80.0302   13.4790 C.ar    1  UNL1        0.2082
     18 N          62.7895   80.3953   12.2594 N.ar    1  UNL1       -0.1840
     19 S          63.4968   81.6887   12.5366 S.2     1  UNL1        0.0508
     20 C          63.4810   91.2640   11.9089 C.3     1  UNL1        0.2058
     21 C          64.8362   91.8152   11.5781 C.3     1  UNL1        0.0514
     22 N          66.2191   92.5847   17.0861 N.3     1  UNL1       -0.3222
     23 C          66.0214   92.5707   15.5992 C.3     1  UNL1        0.0508
     24 C          65.0624   91.5981   14.9792 C.3     1  UNL1        0.0158
     25 C          64.8648   91.5841   13.4924 C.3     1  UNL1        0.0055
     26 C          65.6261   92.5426   12.6255 C.3     1  UNL1        0.0226
     27 C          66.5852   93.5151   13.2455 C.3     1  UNL1        0.0055
     28 C          66.7828   93.5292   14.7323 C.3     1  UNL1        0.0158
     29 H          65.6271   91.8731   17.5145 H       1  UNL1        0.1188
     30 H          65.9680   93.5023   17.4538 H       1  UNL1        0.1188
     31 C          66.1132   93.2485   11.3948 C.ar    1  UNL1       -0.0226
     32 C          67.0736   92.5639   10.4681 C.ar    1  UNL1       -0.0034
     33 C          67.5607   93.2698    9.2374 C.ar    1  UNL1        0.0111
     34 C          67.0873   94.6603    8.9336 C.ar    1  UNL1        0.0577
     35 CL         67.5744   95.3662    7.7030 Cl      1  UNL1       -0.0822
     36 C          66.1269   95.3450    9.8603 C.ar    1  UNL1        0.0111
     37 C          65.6399   94.6390   11.0909 C.ar    1  UNL1       -0.0034
@<TRIPOS>BOND
     1    23    22    1
     2    23    24    1
     3    24    25    1
     4    25    26    1
     5    26    21    1
     6    21    20    1
     7    20     1    1
     8     1     2    1
     9     2     3   ar
    10     3     4   ar
    11     4     5    1
    12     4     6   ar
    13     6    10    1
    14    10    11    2
    15    10    12    2
    16    10    13    1
    17    13    15    1
    18    15    16   ar
    19    16    17   ar
    20    17    18   ar
    21    18    19   ar
    22     6     7   ar
    23     7     8   ar
    24     8     9    1
    25    26    31    1
    26    31    32   ar
    27    32    33   ar
    28    33    34   ar
    29    34    35    1
    30    34    36   ar
    31    36    37   ar
    32    26    27    1
    33    27    28    1
    34    28    23    1
    35     8     2   ar
    36    37    31   ar
    37    19    15   ar
    38    22    29    1
    39    22    30    1
    40    13    14    1
@<TRIPOS>MOLECULE
*****
 37 40 0 0 0
SMALL
GASTEIGER

@<TRIPOS>ATOM
      1 O          61.5735   89.1958   10.4153 O.3     1  UNL1       -0.4731
      2 C          61.9711   87.7520   10.4998 C.ar    1  UNL1        0.1681
      3 C          62.5606   87.2094   11.7679 C.ar    1  UNL1        0.0702
      4 C          62.9582   85.7656   11.8525 C.ar    1  UNL1        0.1620
      5 F          63.5476   85.2230   13.1207 F       1  UNL1       -0.2026
      6 C          62.7664   84.8642   10.6690 C.ar    1  UNL1        0.1549
      7 C          62.1769   85.4068    9.4008 C.ar    1  UNL1        0.0553
      8 C          61.7793   86.8507    9.3162 C.ar    1  UNL1        0.1753
      9 F          61.1898   87.3932    8.0481 F       1  UNL1       -0.2009
     10 S          63.1640   83.4204   10.7535 S.O2    1  UNL1        0.0773
     11 O          64.2806   83.6710    9.7837 O.2     1  UNL1       -0.1498
     12 O          62.0474   83.1697   11.7233 O.2     1  UNL1       -0.1498
     13 N          63.5616   81.9765   10.8381 N.pl3   1  UNL1       -0.1925
     14 H          63.9604   81.5292   10.0570 H       1  UNL1        0.1758
     15 C          63.3515   81.2142   12.1127 C.ar    1  UNL1        0.1977
     16 N          62.4740   80.0100   12.2854 N.ar    1  UNL1       -0.1997
     17 C          62.5621   79.5737   13.7179 C.ar    1  UNL1        0.2082
     18 N          63.4941   80.5083   14.4305 N.ar    1  UNL1       -0.1840
     19 S          63.9819   81.5222   13.4384 S.2     1  UNL1        0.0508
     20 C          62.5195   90.2628   10.8807 C.3     1  UNL1        0.2058
     21 C          62.9189   90.3331   12.3248 C.3     1  UNL1        0.0514
     22 N          67.2638   93.8492   11.0596 N.3     1  UNL1       -0.3222
     23 C          66.2465   92.8948   11.6112 C.3     1  UNL1        0.0508
     24 C          65.0457   92.5230   10.7928 C.3     1  UNL1        0.0158
     25 C          64.0285   91.5686   11.3444 C.3     1  UNL1        0.0055
     26 C          64.2120   90.9861   12.7144 C.3     1  UNL1        0.0226
     27 C          65.4128   91.3579   13.5328 C.3     1  UNL1        0.0055
     28 C          66.4301   92.3123   12.9812 C.3     1  UNL1        0.0158
     29 H          66.9820   94.1436   10.1245 H       1  UNL1        0.1188
     30 H          68.1721   93.3876   11.0114 H       1  UNL1        0.1188
     31 C          63.9464   90.1767   13.9491 C.ar    1  UNL1       -0.0226
     32 C          63.4401   90.8480   15.1913 C.ar    1  UNL1       -0.0034
     33 C          63.1746   90.0386   16.4261 C.ar    1  UNL1        0.0111
     34 C          63.4154   88.5581   16.4185 C.ar    1  UNL1        0.0577
     35 CL         63.1499   87.7488   17.6532 Cl      1  UNL1       -0.0822
     36 C          63.9217   87.8869   15.1763 C.ar    1  UNL1        0.0111
     37 C          64.1872   88.6962   13.9416 C.ar    1  UNL1       -0.0034
@<TRIPOS>BOND
     1    23    22    1
     2    23    24    1
     3    24    25    1
     4    25    26    1
     5    26    21    1
     6    21    20    1
     7    20     1    1
     8     1     2    1
     9     2     3   ar
    10     3     4   ar
    11     4     5    1
    12     4     6   ar
    13     6    10    1
    14    10    11    2
    15    10    12    2
    16    10    13    1
    17    13    15    1
    18    15    16   ar
    19    16    17   ar
    20    17    18   ar
    21    18    19   ar
    22     6     7   ar
    23     7     8   ar
    24     8     9    1
    25    26    31    1
    26    31    32   ar
    27    32    33   ar
    28    33    34   ar
    29    34    35    1
    30    34    36   ar
    31    36    37   ar
    32    26    27    1
    33    27    28    1
    34    28    23    1
    35     8     2   ar
    36    37    31   ar
    37    19    15   ar
    38    22    29    1
    39    22    30    1
    40    13    14    1
