@<TRIPOS>MOLECULE
*****
 45 48 0 0 0
SMALL
GASTEIGER

@<TRIPOS>ATOM
      1 C          61.6123   86.8484    9.0030 C.ar    1  UNL1        0.1485
      2 C          60.4265   87.3163    8.2123 C.ar    1  UNL1        0.0749
      3 C          60.0584   88.7704    8.2019 C.ar    1  UNL1        0.1485
      4 C          60.8760   89.7566    8.9821 C.ar    1  UNL1        0.0422
      5 C          62.0618   89.2888    9.7728 C.ar    1  UNL1        0.0594
      6 C          62.4299   87.8347    9.7832 C.ar    1  UNL1        0.0422
      7 C          62.8794   90.2751   10.5530 C.2     1  UNL1        0.2460
      8 O          63.0876   91.6628   10.0227 O.2     1  UNL1       -0.2701
      9 N          63.4889   89.8738   11.8635 N.am    1  UNL1       -0.3025
     10 H          63.3523   88.9631   12.2115 H       1  UNL1        0.1497
     11 C          64.3065   90.8601   12.6437 C.3     1  UNL1        0.0719
     12 C          64.9686   92.0080   11.9407 C.3     1  UNL1        0.0209
     13 C          65.7862   92.9942   12.7210 C.3     1  UNL1        0.0172
     14 C          65.9418   92.8326   14.2041 C.3     1  UNL1        0.0509
     15 N          66.7595   93.8189   14.9844 N.3     1  UNL1       -0.3222
     16 C          65.2798   91.6847   14.9070 C.3     1  UNL1        0.0172
     17 C          64.4622   90.6985   14.1268 C.3     1  UNL1        0.0209
     18 H          67.1323   94.5271   14.3521 H       1  UNL1        0.1188
     19 H          67.5302   93.3336   15.4437 H       1  UNL1        0.1188
     20 O          61.9804   85.3944    9.0134 O.3     1  UNL1       -0.4534
     21 C          63.5006   83.4852   12.7942 C.ar    1  UNL1        0.0815
     22 C          63.9859   82.9989   11.4608 C.ar    1  UNL1        0.0105
     23 C          63.4792   83.6353   10.2006 C.ar    1  UNL1        0.0377
     24 C          62.4871   84.7580   10.2737 C.ar    1  UNL1        0.1453
     25 C          62.0018   85.2443   11.6071 C.ar    1  UNL1        0.0377
     26 C          62.5085   84.6079   12.8673 C.ar    1  UNL1        0.0105
     27 N          63.8760   81.3678   14.2520 N.2     1  UNL1       -0.0994
     28 C          64.0073   82.8488   14.0545 C.2     1  UNL1        0.3093
     29 N          64.6454   83.6935   15.1171 N.pl3   1  UNL1       -0.2466
     30 H          64.2086   80.9501   15.0792 H       1  UNL1        0.3633
     31 H          64.9780   83.2759   15.9443 H       1  UNL1        0.2884
     32 H          64.7316   84.6657   14.9874 H       1  UNL1        0.2884
     33 O          58.8726   89.2383    7.4112 O.3     1  UNL1       -0.4534
     34 C          59.0651   90.1679    6.2499 C.ar    1  UNL1        0.1453
     35 C          57.8865   90.8824    5.6578 C.ar    1  UNL1        0.0377
     36 C          58.0789   91.8120    4.4965 C.ar    1  UNL1        0.0105
     37 C          59.4500   92.0271    3.9271 C.ar    1  UNL1        0.0815
     38 C          60.6285   91.3126    4.5192 C.ar    1  UNL1        0.0105
     39 C          60.4360   90.3830    5.6805 C.ar    1  UNL1        0.0377
     40 C          59.6424   92.9567    2.7658 C.2     1  UNL1        0.3093
     41 N          60.1273   94.3570    2.9983 N.2     1  UNL1       -0.0994
     42 N          59.3500   92.4860    1.3718 N.pl3   1  UNL1       -0.2466
     43 H          60.3193   94.6659    3.9131 H       1  UNL1        0.3633
     44 H          59.0317   91.5669    1.2192 H       1  UNL1        0.2884
     45 H          59.4763   93.0961    0.6096 H       1  UNL1        0.2884
@<TRIPOS>BOND
     1    27    28    2
     2    28    29    1
     3    28    21    1
     4    21    22   ar
     5    22    23   ar
     6    23    24   ar
     7    24    20    1
     8    20     1    1
     9     1     2   ar
    10     2     3   ar
    11     3    33    1
    12    33    34    1
    13    34    35   ar
    14    35    36   ar
    15    36    37   ar
    16    37    40    1
    17    40    41    2
    18    40    42    1
    19    37    38   ar
    20    38    39   ar
    21     3     4   ar
    22     4     5   ar
    23     5     7    1
    24     7     8    2
    25     7     9   am
    26    11     9    1
    27    11    12    1
    28    12    13    1
    29    13    14    1
    30    14    15    1
    31    14    16    1
    32    16    17    1
    33     5     6   ar
    34    24    25   ar
    35    25    26   ar
    36    26    21   ar
    37     6     1   ar
    38    39    34   ar
    39    17    11    1
    40    27    30    1
    41    29    31    1
    42    29    32    1
    43    41    43    1
    44    42    44    1
    45    42    45    1
    46     9    10    1
    47    15    18    1
    48    15    19    1
@<TRIPOS>MOLECULE
*****
 45 48 0 0 0
SMALL
GASTEIGER

@<TRIPOS>ATOM
      1 C          60.0647   88.7685    8.1979 C.ar    1  UNL1        0.1485
      2 C          60.4347   87.3149    8.2073 C.ar    1  UNL1        0.0749
      3 C          61.6179   86.8472    9.0016 C.ar    1  UNL1        0.1485
      4 C          62.4313   87.8331    9.7867 C.ar    1  UNL1        0.0422
      5 C          62.0614   89.2867    9.7774 C.ar    1  UNL1        0.0594
      6 C          60.8780   89.7545    8.9830 C.ar    1  UNL1        0.0422
      7 C          62.8747   90.2727   10.5625 C.2     1  UNL1        0.2460
      8 O          63.0790   91.6631   10.0378 O.2     1  UNL1       -0.2701
      9 N          63.4838   89.8683   11.8723 N.am    1  UNL1       -0.3025
     10 H          63.3498   88.9558   12.2166 H       1  UNL1        0.1497
     11 C          64.2972   90.8543   12.6574 C.3     1  UNL1        0.0719
     12 C          64.4415   90.6942   14.1419 C.3     1  UNL1        0.0209
     13 C          65.2548   91.6801   14.9270 C.3     1  UNL1        0.0172
     14 C          65.9239   92.8261   14.2276 C.3     1  UNL1        0.0509
     15 N          66.7372   93.8121   15.0127 N.3     1  UNL1       -0.3222
     16 C          65.7796   92.9862   12.7432 C.3     1  UNL1        0.0172
     17 C          64.9662   92.0002   11.9581 C.3     1  UNL1        0.0209
     18 H          66.7274   93.5521   15.9989 H       1  UNL1        0.1188
     19 H          66.3395   94.7449   14.9029 H       1  UNL1        0.1188
     20 O          58.8814   89.2362    7.4036 O.3     1  UNL1       -0.4534
     21 C          59.4681   92.0334    3.9278 C.ar    1  UNL1        0.0815
     22 C          58.0943   91.8097    4.4868 C.ar    1  UNL1        0.0105
     23 C          57.8988   90.8773    5.6454 C.ar    1  UNL1        0.0377
     24 C          59.0770   90.1686    6.2450 C.ar    1  UNL1        0.1453
     25 C          60.4508   90.3923    5.6859 C.ar    1  UNL1        0.0377
     26 C          60.6463   91.3247    4.5273 C.ar    1  UNL1        0.0105
     27 N          59.4331   92.4806    1.3687 N.2     1  UNL1       -0.0994
     28 C          59.6637   92.9658    2.7691 C.2     1  UNL1        0.3093
     29 N          60.0899   94.3835    3.0110 N.pl3   1  UNL1       -0.2466
     30 H          59.5615   93.0926    0.6083 H       1  UNL1        0.3633
     31 H          60.2183   94.9955    2.2506 H       1  UNL1        0.2884
     32 H          60.2413   94.7020    3.9302 H       1  UNL1        0.2884
     33 O          61.9879   85.3935    9.0109 O.3     1  UNL1       -0.4534
     34 C          62.4869   84.7547   10.2731 C.ar    1  UNL1        0.1453
     35 C          61.9905   85.2359   11.6043 C.ar    1  UNL1        0.0377
     36 C          62.4895   84.5971   12.8664 C.ar    1  UNL1        0.0105
     37 C          63.4850   83.4771   12.7973 C.ar    1  UNL1        0.0815
     38 C          63.9813   82.9959   11.4661 C.ar    1  UNL1        0.0105
     39 C          63.4823   83.6347   10.2040 C.ar    1  UNL1        0.0377
     40 C          63.9840   82.8383   14.0594 C.2     1  UNL1        0.3093
     41 N          64.6108   83.6817   15.1298 N.2     1  UNL1       -0.0994
     42 N          63.8561   81.3560   14.2511 N.pl3   1  UNL1       -0.2466
     43 H          64.6947   84.6545   15.0040 H       1  UNL1        0.3633
     44 H          63.4447   80.8025   13.5485 H       1  UNL1        0.2884
     45 H          64.1836   80.9368   15.0794 H       1  UNL1        0.2884
@<TRIPOS>BOND
     1    27    28    2
     2    28    29    1
     3    28    21    1
     4    21    22   ar
     5    22    23   ar
     6    23    24   ar
     7    24    20    1
     8    20     1    1
     9     1     2   ar
    10     2     3   ar
    11     3    33    1
    12    33    34    1
    13    34    35   ar
    14    35    36   ar
    15    36    37   ar
    16    37    40    1
    17    40    41    2
    18    40    42    1
    19    37    38   ar
    20    38    39   ar
    21     3     4   ar
    22     4     5   ar
    23     5     7    1
    24     7     8    2
    25     7     9   am
    26    11     9    1
    27    11    12    1
    28    12    13    1
    29    13    14    1
    30    14    15    1
    31    14    16    1
    32    16    17    1
    33     5     6   ar
    34    24    25   ar
    35    25    26   ar
    36    26    21   ar
    37     6     1   ar
    38    39    34   ar
    39    17    11    1
    40    27    30    1
    41    29    31    1
    42    29    32    1
    43    41    43    1
    44    42    44    1
    45    42    45    1
    46     9    10    1
    47    15    18    1
    48    15    19    1
@<TRIPOS>MOLECULE
*****
 45 48 0 0 0
SMALL
GASTEIGER

@<TRIPOS>ATOM
      1 C          60.1522   88.7123    8.5111 C.ar    1  UNL1        0.1485
      2 C          60.5769   90.0064    9.1397 C.ar    1  UNL1        0.0749
      3 C          61.5448   90.0016   10.2856 C.ar    1  UNL1        0.1485
      4 C          62.0880   88.7027   10.8030 C.ar    1  UNL1        0.0422
      5 C          61.6634   87.4086   10.1746 C.ar    1  UNL1        0.0594
      6 C          60.6954   87.4134    9.0286 C.ar    1  UNL1        0.0422
      7 C          62.2066   86.1097   10.6920 C.2     1  UNL1        0.2460
      8 O          62.9356   85.1802    9.7675 O.2     1  UNL1       -0.2701
      9 N          62.0209   85.7403   12.1339 N.am    1  UNL1       -0.3025
     10 H          61.5424   86.3504   12.7406 H       1  UNL1        0.1497
     11 C          62.5641   84.4414   12.6513 C.3     1  UNL1        0.0719
     12 C          63.2592   84.3952   13.9798 C.3     1  UNL1        0.0209
     13 C          63.8024   83.0963   14.4973 C.3     1  UNL1        0.0172
     14 C          63.6506   81.8436   13.6862 C.3     1  UNL1        0.0509
     15 N          64.1938   80.5447   14.2037 N.3     1  UNL1       -0.3222
     16 C          62.9555   81.8898   12.3578 C.3     1  UNL1        0.0172
     17 C          62.4123   83.1887   11.8404 C.3     1  UNL1        0.0209
     18 H          64.6304   80.6969   15.1129 H       1  UNL1        0.1188
     19 H          64.8875   80.1817   13.5499 H       1  UNL1        0.1188
     20 O          59.1844   88.7171    7.3652 O.3     1  UNL1       -0.4534
     21 C          59.4914   91.8748    4.1739 C.ar    1  UNL1        0.0815
     22 C          60.7149   91.1205    4.6028 C.ar    1  UNL1        0.0105
     23 C          60.6126   90.0679    5.6665 C.ar    1  UNL1        0.0377
     24 C          59.2867   89.7697    6.3014 C.ar    1  UNL1        0.1453
     25 C          58.0632   90.5241    5.8726 C.ar    1  UNL1        0.0377
     26 C          58.1656   91.5766    4.8088 C.ar    1  UNL1        0.0105
     27 N          60.0784   94.3031    3.4604 N.2     1  UNL1       -0.0994
     28 C          59.5938   92.9274    3.1101 C.2     1  UNL1        0.3093
     29 N          59.2116   92.6043    1.6961 N.pl3   1  UNL1       -0.2466
     30 H          60.1455   94.9939    2.7622 H       1  UNL1        0.3633
     31 H          59.2788   93.2952    0.9979 H       1  UNL1        0.2884
     32 H          58.8935   91.7014    1.4662 H       1  UNL1        0.2884
     33 O          61.9695   91.2957   10.9141 O.3     1  UNL1       -0.4534
     34 C          63.2963   91.3931   11.6069 C.ar    1  UNL1        0.1453
     35 C          63.4642   90.8321   12.9880 C.ar    1  UNL1        0.0377
     36 C          64.7910   90.9295   13.6808 C.ar    1  UNL1        0.0105
     37 C          65.9500   91.5879   12.9926 C.ar    1  UNL1        0.0815
     38 C          65.7820   92.1488   11.6117 C.ar    1  UNL1        0.0105
     39 C          64.4552   92.0514   10.9188 C.ar    1  UNL1        0.0377
     40 C          67.2768   91.6853   13.6855 C.2     1  UNL1        0.3093
     41 N          67.3367   91.7793   15.1813 N.2     1  UNL1       -0.0994
     42 N          68.5438   91.6886   12.8824 N.pl3   1  UNL1       -0.2466
     43 H          66.5052   91.7772   15.7083 H       1  UNL1        0.3633
     44 H          68.5044   91.6269   11.9006 H       1  UNL1        0.2884
     45 H          69.4146   91.7525   13.3371 H       1  UNL1        0.2884
@<TRIPOS>BOND
     1    27    28    2
     2    28    29    1
     3    28    21    1
     4    21    22   ar
     5    22    23   ar
     6    23    24   ar
     7    24    20    1
     8    20     1    1
     9     1     2   ar
    10     2     3   ar
    11     3    33    1
    12    33    34    1
    13    34    35   ar
    14    35    36   ar
    15    36    37   ar
    16    37    40    1
    17    40    41    2
    18    40    42    1
    19    37    38   ar
    20    38    39   ar
    21     3     4   ar
    22     4     5   ar
    23     5     7    1
    24     7     8    2
    25     7     9   am
    26    11     9    1
    27    11    12    1
    28    12    13    1
    29    13    14    1
    30    14    15    1
    31    14    16    1
    32    16    17    1
    33     5     6   ar
    34    24    25   ar
    35    25    26   ar
    36    26    21   ar
    37     6     1   ar
    38    39    34   ar
    39    17    11    1
    40    27    30    1
    41    29    31    1
    42    29    32    1
    43    41    43    1
    44    42    44    1
    45    42    45    1
    46     9    10    1
    47    15    18    1
    48    15    19    1
@<TRIPOS>MOLECULE
*****
 45 48 0 0 0
SMALL
GASTEIGER

@<TRIPOS>ATOM
      1 C          61.5486   90.0033   10.3114 C.ar    1  UNL1        0.1485
      2 C          60.5808   90.0114    9.1653 C.ar    1  UNL1        0.0749
      3 C          60.1580   88.7193    8.5316 C.ar    1  UNL1        0.1485
      4 C          60.7029   87.4191    9.0438 C.ar    1  UNL1        0.0422
      5 C          61.6706   87.4109   10.1898 C.ar    1  UNL1        0.0594
      6 C          62.0935   88.7031   10.8236 C.ar    1  UNL1        0.0422
      7 C          62.2156   86.1107   10.7021 C.2     1  UNL1        0.2460
      8 O          62.9737   85.2006    9.7817 O.2     1  UNL1       -0.2701
      9 N          62.0024   85.7205   12.1346 N.am    1  UNL1       -0.3025
     10 H          61.5048   86.3178   12.7387 H       1  UNL1        0.1497
     11 C          62.5473   84.4202   12.6469 C.3     1  UNL1        0.0719
     12 C          63.2593   84.3732   13.9663 C.3     1  UNL1        0.0209
     13 C          63.8042   83.0730   14.4786 C.3     1  UNL1        0.0172
     14 C          63.6372   81.8197   13.6714 C.3     1  UNL1        0.0509
     15 N          64.1821   80.5195   14.1836 N.3     1  UNL1       -0.3222
     16 C          62.9252   81.8668   12.3520 C.3     1  UNL1        0.0172
     17 C          62.3803   83.1670   11.8397 C.3     1  UNL1        0.0209
     18 H          64.6310   80.6712   15.0869 H       1  UNL1        0.1188
     19 H          64.8659   80.1529   13.5215 H       1  UNL1        0.1188
     20 O          61.9714   91.2954   10.9451 O.3     1  UNL1       -0.4534
     21 C          65.9617   91.5917   13.0042 C.ar    1  UNL1        0.0815
     22 C          64.8108   90.9192   13.6921 C.ar    1  UNL1        0.0105
     23 C          63.4807   90.8205   13.0057 C.ar    1  UNL1        0.0377
     24 C          63.3015   91.3942   11.6315 C.ar    1  UNL1        0.1453
     25 C          64.4523   92.0667   10.9436 C.ar    1  UNL1        0.0377
     26 C          65.7824   92.1654   11.6299 C.ar    1  UNL1        0.0105
     27 N          68.5532   91.7278   12.8798 N.2     1  UNL1       -0.0994
     28 C          67.2917   91.6905   13.6906 C.2     1  UNL1        0.3093
     29 N          67.3604   91.7520   15.1877 N.pl3   1  UNL1       -0.2466
     30 H          69.4261   91.7926   13.3303 H       1  UNL1        0.3633
     31 H          68.2334   91.8169   15.6382 H       1  UNL1        0.2884
     32 H          66.5325   91.7276   15.7199 H       1  UNL1        0.2884
     33 O          59.1902   88.7274    7.3855 O.3     1  UNL1       -0.4534
     34 C          59.2975   89.7784    6.3207 C.ar    1  UNL1        0.1453
     35 C          58.0755   90.5305    5.8833 C.ar    1  UNL1        0.0377
     36 C          58.1829   91.5815    4.8184 C.ar    1  UNL1        0.0105
     37 C          59.5122   91.8804    4.1910 C.ar    1  UNL1        0.0815
     38 C          60.7341   91.1284    4.6284 C.ar    1  UNL1        0.0105
     39 C          60.6267   90.0774    5.6932 C.ar    1  UNL1        0.0377
     40 C          59.6195   92.9314    3.1261 C.2     1  UNL1        0.3093
     41 N          60.0815   94.3138    3.4806 N.2     1  UNL1       -0.0994
     42 N          59.2649   92.6000    1.7068 N.pl3   1  UNL1       -0.2466
     43 H          60.3142   94.5313    4.4121 H       1  UNL1        0.3633
     44 H          58.9617   91.6927    1.4742 H       1  UNL1        0.2884
     45 H          59.3354   93.2898    1.0079 H       1  UNL1        0.2884
@<TRIPOS>BOND
     1    27    28    2
     2    28    29    1
     3    28    21    1
     4    21    22   ar
     5    22    23   ar
     6    23    24   ar
     7    24    20    1
     8    20     1    1
     9     1     2   ar
    10     2     3   ar
    11     3    33    1
    12    33    34    1
    13    34    35   ar
    14    35    36   ar
    15    36    37   ar
    16    37    40    1
    17    40    41    2
    18    40    42    1
    19    37    38   ar
    20    38    39   ar
    21     3     4   ar
    22     4     5   ar
    23     5     7    1
    24     7     8    2
    25     7     9   am
    26    11     9    1
    27    11    12    1
    28    12    13    1
    29    13    14    1
    30    14    15    1
    31    14    16    1
    32    16    17    1
    33     5     6   ar
    34    24    25   ar
    35    25    26   ar
    36    26    21   ar
    37     6     1   ar
    38    39    34   ar
    39    17    11    1
    40    27    30    1
    41    29    31    1
    42    29    32    1
    43    41    43    1
    44    42    44    1
    45    42    45    1
    46     9    10    1
    47    15    18    1
    48    15    19    1
@<TRIPOS>MOLECULE
*****
 45 48 0 0 0
SMALL
GASTEIGER

@<TRIPOS>ATOM
      1 C          64.4918   88.8244   14.6818 C.ar    1  UNL1        0.1485
      2 C          65.3305   90.0649   14.7707 C.ar    1  UNL1        0.0749
      3 C          65.2158   91.1250   13.7158 C.ar    1  UNL1        0.1485
      4 C          64.2624   90.9447   12.5719 C.ar    1  UNL1        0.0422
      5 C          63.4237   89.7043   12.4829 C.ar    1  UNL1        0.0594
      6 C          63.5384   88.6441   13.5379 C.ar    1  UNL1        0.0422
      7 C          62.4703   89.5240   11.3390 C.2     1  UNL1        0.2460
      8 O          61.9030   90.7235   10.6393 O.2     1  UNL1       -0.2701
      9 N          62.0842   88.1443   10.8948 N.am    1  UNL1       -0.3025
     10 H          62.4565   87.3571   11.3540 H       1  UNL1        0.1497
     11 C          61.1308   87.9640    9.7509 C.3     1  UNL1        0.0719
     12 C          60.7515   86.5842    9.3010 C.3     1  UNL1        0.0209
     13 C          59.7981   86.4039    8.1571 C.3     1  UNL1        0.0172
     14 C          59.2239   87.6034    7.4631 C.3     1  UNL1        0.0509
     15 N          58.2705   87.4231    6.3192 N.3     1  UNL1       -0.3222
     16 C          59.6032   88.9832    7.9130 C.3     1  UNL1        0.0172
     17 C          60.5566   89.1635    9.0569 C.3     1  UNL1        0.0209
     18 H          58.1266   86.4276    6.1503 H       1  UNL1        0.1188
     19 H          58.6583   87.8575    5.4817 H       1  UNL1        0.1188
     20 O          64.6065   87.7643   15.7367 O.3     1  UNL1       -0.4534
     21 C          63.3906   83.5310   14.8142 C.ar    1  UNL1        0.0815
     22 C          64.5888   84.1310   14.1403 C.ar    1  UNL1        0.0105
     23 C          64.9942   85.5421   14.4478 C.ar    1  UNL1        0.0377
     24 C          64.2012   86.3532   15.4292 C.ar    1  UNL1        0.1453
     25 C          63.0030   85.7533   16.1032 C.ar    1  UNL1        0.0377
     26 C          62.5977   84.3422   15.7957 C.ar    1  UNL1        0.0105
     27 N          61.5427   81.7182   14.5933 N.2     1  UNL1       -0.0994
     28 C          62.9853   82.1199   14.5067 C.2     1  UNL1        0.3093
     29 N          64.0225   81.1106   14.1126 N.pl3   1  UNL1       -0.2466
     30 H          61.2767   80.7920   14.3915 H       1  UNL1        0.3633
     31 H          63.7565   80.1845   13.9108 H       1  UNL1        0.2884
     32 H          64.9694   81.3743   14.0558 H       1  UNL1        0.2884
     33 O          66.0545   92.3655   13.8047 O.3     1  UNL1       -0.4534
     34 C          66.3174   93.1828   12.5747 C.ar    1  UNL1        0.1453
     35 C          66.7709   92.5126   11.3116 C.ar    1  UNL1        0.0377
     36 C          67.0338   93.3299   10.0816 C.ar    1  UNL1        0.0105
     37 C          66.8432   94.8174   10.1147 C.ar    1  UNL1        0.0815
     38 C          66.3897   95.4876   11.3777 C.ar    1  UNL1        0.0105
     39 C          66.1268   94.6702   12.6077 C.ar    1  UNL1        0.0377
     40 C          67.1060   95.6348    8.8847 C.2     1  UNL1        0.3093
     41 N          67.9742   96.8552    8.9666 N.2     1  UNL1       -0.0994
     42 N          66.5007   95.2316    7.5728 N.pl3   1  UNL1       -0.2466
     43 H          68.3715   97.1198    9.8276 H       1  UNL1        0.3633
     44 H          65.9309   94.4305    7.5190 H       1  UNL1        0.2884
     45 H          66.6732   95.7680    6.7655 H       1  UNL1        0.2884
@<TRIPOS>BOND
     1    27    28    2
     2    28    29    1
     3    28    21    1
     4    21    22   ar
     5    22    23   ar
     6    23    24   ar
     7    24    20    1
     8    20     1    1
     9     1     2   ar
    10     2     3   ar
    11     3    33    1
    12    33    34    1
    13    34    35   ar
    14    35    36   ar
    15    36    37   ar
    16    37    40    1
    17    40    41    2
    18    40    42    1
    19    37    38   ar
    20    38    39   ar
    21     3     4   ar
    22     4     5   ar
    23     5     7    1
    24     7     8    2
    25     7     9   am
    26    11     9    1
    27    11    12    1
    28    12    13    1
    29    13    14    1
    30    14    15    1
    31    14    16    1
    32    16    17    1
    33     5     6   ar
    34    24    25   ar
    35    25    26   ar
    36    26    21   ar
    37     6     1   ar
    38    39    34   ar
    39    17    11    1
    40    27    30    1
    41    29    31    1
    42    29    32    1
    43    41    43    1
    44    42    44    1
    45    42    45    1
    46     9    10    1
    47    15    18    1
    48    15    19    1
@<TRIPOS>MOLECULE
*****
 45 48 0 0 0
SMALL
GASTEIGER

@<TRIPOS>ATOM
      1 C          65.2738   91.0347   13.7991 C.ar    1  UNL1        0.1485
      2 C          65.4197   89.9327   14.8064 C.ar    1  UNL1        0.0749
      3 C          64.5473   88.7158   14.7185 C.ar    1  UNL1        0.1485
      4 C          63.5288   88.6007   13.6232 C.ar    1  UNL1        0.0422
      5 C          63.3829   89.7025   12.6160 C.ar    1  UNL1        0.0594
      6 C          64.2554   90.9195   12.7039 C.ar    1  UNL1        0.0422
      7 C          62.3645   89.5874   11.5207 C.2     1  UNL1        0.2460
      8 O          61.5570   90.7858   11.1184 O.2     1  UNL1       -0.2701
      9 N          62.1534   88.2739   10.8278 N.am    1  UNL1       -0.3025
     10 H          62.6834   87.4873   11.0919 H       1  UNL1        0.1497
     11 C          61.1350   88.1588    9.7326 C.3     1  UNL1        0.0719
     12 C          60.6901   89.3840    8.9903 C.3     1  UNL1        0.0209
     13 C          59.6717   89.2689    7.8951 C.3     1  UNL1        0.0172
     14 C          59.0982   87.9285    7.5421 C.3     1  UNL1        0.0509
     15 N          58.0797   87.8134    6.4469 N.3     1  UNL1       -0.3222
     16 C          59.5431   86.7034    8.2843 C.3     1  UNL1        0.0172
     17 C          60.5615   86.8185    9.3796 C.3     1  UNL1        0.0209
     18 H          57.8965   88.7369    6.0545 H       1  UNL1        0.1188
     19 H          57.2150   87.4273    6.8259 H       1  UNL1        0.1188
     20 O          66.1463   92.2516   13.8871 O.3     1  UNL1       -0.4534
     21 C          66.8578   94.7790   10.2325 C.ar    1  UNL1        0.0815
     22 C          66.3654   95.4138   11.4992 C.ar    1  UNL1        0.0105
     23 C          66.1282   94.5714   12.7174 C.ar    1  UNL1        0.0377
     24 C          66.3835   93.0941   12.6689 C.ar    1  UNL1        0.1453
     25 C          66.8759   92.4592   11.4023 C.ar    1  UNL1        0.0377
     26 C          67.1131   93.3017   10.1841 C.ar    1  UNL1        0.0105
     27 N          67.9428   96.8553    9.1092 N.2     1  UNL1       -0.0994
     28 C          67.0950   95.6215    9.0143 C.2     1  UNL1        0.3093
     29 N          66.4844   95.2302    7.7013 N.pl3   1  UNL1       -0.2466
     30 H          68.0984   97.4082    8.3096 H       1  UNL1        0.3633
     31 H          66.6401   95.7831    6.9018 H       1  UNL1        0.2884
     32 H          65.9280   94.4204    7.6391 H       1  UNL1        0.2884
     33 O          64.6932   87.6139   15.7257 O.3     1  UNL1       -0.4534
     34 C          64.2938   86.2130   15.3680 C.ar    1  UNL1        0.1453
     35 C          63.1150   85.5742   16.0406 C.ar    1  UNL1        0.0377
     36 C          62.7156   84.1733   15.6828 C.ar    1  UNL1        0.0105
     37 C          63.4951   83.4112   14.6524 C.ar    1  UNL1        0.0815
     38 C          64.6739   84.0500   13.9799 C.ar    1  UNL1        0.0105
     39 C          65.0733   85.4509   14.3376 C.ar    1  UNL1        0.0377
     40 C          63.0957   82.0103   14.2947 C.2     1  UNL1        0.3093
     41 N          64.0346   81.1389   13.5143 N.2     1  UNL1       -0.0994
     42 N          61.7573   81.4809   14.7173 N.pl3   1  UNL1       -0.2466
     43 H          64.9130   81.4863   13.2370 H       1  UNL1        0.3633
     44 H          61.1411   82.0529   15.2294 H       1  UNL1        0.2884
     45 H          61.4952   80.5614   14.4824 H       1  UNL1        0.2884
@<TRIPOS>BOND
     1    27    28    2
     2    28    29    1
     3    28    21    1
     4    21    22   ar
     5    22    23   ar
     6    23    24   ar
     7    24    20    1
     8    20     1    1
     9     1     2   ar
    10     2     3   ar
    11     3    33    1
    12    33    34    1
    13    34    35   ar
    14    35    36   ar
    15    36    37   ar
    16    37    40    1
    17    40    41    2
    18    40    42    1
    19    37    38   ar
    20    38    39   ar
    21     3     4   ar
    22     4     5   ar
    23     5     7    1
    24     7     8    2
    25     7     9   am
    26    11     9    1
    27    11    12    1
    28    12    13    1
    29    13    14    1
    30    14    15    1
    31    14    16    1
    32    16    17    1
    33     5     6   ar
    34    24    25   ar
    35    25    26   ar
    36    26    21   ar
    37     6     1   ar
    38    39    34   ar
    39    17    11    1
    40    27    30    1
    41    29    31    1
    42    29    32    1
    43    41    43    1
    44    42    44    1
    45    42    45    1
    46     9    10    1
    47    15    18    1
    48    15    19    1
@<TRIPOS>MOLECULE
*****
 45 48 0 0 0
SMALL
GASTEIGER

@<TRIPOS>ATOM
      1 C          64.8701   89.6903   14.5591 C.ar    1  UNL1        0.1485
      2 C          65.0292   88.4064   15.3185 C.ar    1  UNL1        0.0749
      3 C          64.4035   87.1458   14.7997 C.ar    1  UNL1        0.1485
      4 C          63.6187   87.1688   13.5216 C.ar    1  UNL1        0.0422
      5 C          63.4596   88.4525   12.7622 C.ar    1  UNL1        0.0594
      6 C          64.0854   89.7133   13.2810 C.ar    1  UNL1        0.0422
      7 C          62.6748   88.4756   11.4841 C.2     1  UNL1        0.2460
      8 O          62.9005   89.5716   10.4851 O.2     1  UNL1       -0.2701
      9 N          61.6644   87.4027   11.2049 N.am    1  UNL1       -0.3025
     10 H          61.5163   86.6834   11.8606 H       1  UNL1        0.1497
     11 C          60.8797   87.4258    9.9268 C.3     1  UNL1        0.0719
     12 C          60.7093   86.1673    9.1285 C.3     1  UNL1        0.0209
     13 C          59.9245   86.1903    7.8504 C.3     1  UNL1        0.0172
     14 C          59.3101   87.4719    7.3706 C.3     1  UNL1        0.0509
     15 N          58.5253   87.4950    6.0925 N.3     1  UNL1       -0.3222
     16 C          59.4805   88.7303    8.1689 C.3     1  UNL1        0.0172
     17 C          60.2653   88.7073    9.4470 C.3     1  UNL1        0.0209
     18 H          58.5118   86.5601    5.6849 H       1  UNL1        0.1188
     19 H          58.9606   88.1450    5.4379 H       1  UNL1        0.1188
     20 O          65.4958   90.9509   15.0779 O.3     1  UNL1       -0.4534
     21 C          66.2142   94.4156   12.2976 C.ar    1  UNL1        0.0815
     22 C          66.7064   94.4754   13.7132 C.ar    1  UNL1        0.0105
     23 C          66.4669   93.3205   14.6400 C.ar    1  UNL1        0.0377
     24 C          65.7353   92.1058   14.1511 C.ar    1  UNL1        0.1453
     25 C          65.2431   92.0460   12.7354 C.ar    1  UNL1        0.0377
     26 C          65.4825   93.2009   11.8087 C.ar    1  UNL1        0.0105
     27 N          65.7051   96.8557   11.5651 N.2     1  UNL1       -0.0994
     28 C          66.4536   95.5705   11.3708 C.2     1  UNL1        0.3093
     29 N          67.4416   95.4402   10.2498 N.pl3   1  UNL1       -0.2466
     30 H          65.8622   97.6137   10.9568 H       1  UNL1        0.3633
     31 H          67.5988   96.1982    9.6415 H       1  UNL1        0.2884
     32 H          67.9330   94.5966   10.1222 H       1  UNL1        0.2884
     33 O          64.5625   85.8619   15.5591 O.3     1  UNL1       -0.4534
     34 C          63.9112   84.6077   15.0565 C.ar    1  UNL1        0.1453
     35 C          62.5673   84.1979   15.5821 C.ar    1  UNL1        0.0377
     36 C          61.9160   82.9437   15.0795 C.ar    1  UNL1        0.0105
     37 C          62.6086   82.0991   14.0513 C.ar    1  UNL1        0.0815
     38 C          63.9524   82.5089   13.5257 C.ar    1  UNL1        0.0105
     39 C          64.6037   83.7631   14.0283 C.ar    1  UNL1        0.0377
     40 C          61.9573   80.8449   13.5487 C.2     1  UNL1        0.3093
     41 N          60.6178   80.4301   14.0813 N.2     1  UNL1       -0.0994
     42 N          62.6455   80.0054   12.5134 N.pl3   1  UNL1       -0.2466
     43 H          60.1661   80.9810   14.7607 H       1  UNL1        0.3633
     44 H          63.5247   80.2777   12.1638 H       1  UNL1        0.2884
     45 H          62.2180   79.1822   12.1835 H       1  UNL1        0.2884
@<TRIPOS>BOND
     1    27    28    2
     2    28    29    1
     3    28    21    1
     4    21    22   ar
     5    22    23   ar
     6    23    24   ar
     7    24    20    1
     8    20     1    1
     9     1     2   ar
    10     2     3   ar
    11     3    33    1
    12    33    34    1
    13    34    35   ar
    14    35    36   ar
    15    36    37   ar
    16    37    40    1
    17    40    41    2
    18    40    42    1
    19    37    38   ar
    20    38    39   ar
    21     3     4   ar
    22     4     5   ar
    23     5     7    1
    24     7     8    2
    25     7     9   am
    26    11     9    1
    27    11    12    1
    28    12    13    1
    29    13    14    1
    30    14    15    1
    31    14    16    1
    32    16    17    1
    33     5     6   ar
    34    24    25   ar
    35    25    26   ar
    36    26    21   ar
    37     6     1   ar
    38    39    34   ar
    39    17    11    1
    40    27    30    1
    41    29    31    1
    42    29    32    1
    43    41    43    1
    44    42    44    1
    45    42    45    1
    46     9    10    1
    47    15    18    1
    48    15    19    1
@<TRIPOS>MOLECULE
*****
 45 48 0 0 0
SMALL
GASTEIGER

@<TRIPOS>ATOM
      1 C          61.9613   88.4556   11.5756 C.ar    1  UNL1        0.1485
      2 C          62.3998   87.5238   12.6663 C.ar    1  UNL1        0.0749
      3 C          63.5695   87.8826   13.5341 C.ar    1  UNL1        0.1485
      4 C          64.3007   89.1732   13.3113 C.ar    1  UNL1        0.0422
      5 C          63.8622   90.1051   12.2207 C.ar    1  UNL1        0.0594
      6 C          62.6925   89.7463   11.3529 C.ar    1  UNL1        0.0422
      7 C          64.5934   91.3957   11.9980 C.2     1  UNL1        0.2460
      8 O          64.7177   92.3897   13.1145 O.2     1  UNL1       -0.2701
      9 N          65.2003   91.6924   10.6587 N.am    1  UNL1       -0.3025
     10 H          65.1187   91.0400    9.9259 H       1  UNL1        0.1497
     11 C          65.9315   92.9830   10.4360 C.3     1  UNL1        0.0719
     12 C          67.1343   93.0187    9.5403 C.3     1  UNL1        0.0209
     13 C          67.8655   94.3093    9.3176 C.3     1  UNL1        0.0172
     14 C          67.3939   95.5643    9.9904 C.3     1  UNL1        0.0509
     15 N          68.1250   96.8549    9.7676 N.3     1  UNL1       -0.3222
     16 C          66.1911   95.5286   10.8860 C.3     1  UNL1        0.0172
     17 C          65.4599   94.2380   11.1087 C.3     1  UNL1        0.0209
     18 H          68.9105   96.6961    9.1366 H       1  UNL1        0.1188
     19 H          68.4715   97.2078   10.6597 H       1  UNL1        0.1188
     20 O          60.7917   88.0968   10.7078 O.3     1  UNL1       -0.4534
     21 C          61.3588   85.3465    7.1915 C.ar    1  UNL1        0.0815
     22 C          62.5082   85.6351    8.1110 C.ar    1  UNL1        0.0105
     23 C          62.3192   86.5519    9.2831 C.ar    1  UNL1        0.0377
     24 C          60.9807   87.1801    9.5357 C.ar    1  UNL1        0.1453
     25 C          59.8313   86.8915    8.6162 C.ar    1  UNL1        0.0377
     26 C          60.0203   85.9748    7.4441 C.ar    1  UNL1        0.0105
     27 N          62.7970   84.5161    5.1936 N.2     1  UNL1       -0.0994
     28 C          61.5478   84.4298    6.0194 C.2     1  UNL1        0.3093
     29 N          60.4876   83.4267    5.6732 N.pl3   1  UNL1       -0.2466
     30 H          62.9210   83.9143    4.4243 H       1  UNL1        0.3633
     31 H          60.6117   82.8250    4.9039 H       1  UNL1        0.2884
     32 H          59.6677   83.3701    6.2152 H       1  UNL1        0.2884
     33 O          64.0080   86.9508   14.6247 O.3     1  UNL1       -0.4534
     34 C          63.6637   85.4928   14.5490 C.ar    1  UNL1        0.1453
     35 C          64.4926   84.5692   13.7063 C.ar    1  UNL1        0.0377
     36 C          64.1483   83.1112   13.6305 C.ar    1  UNL1        0.0105
     37 C          62.9751   82.5768   14.3974 C.ar    1  UNL1        0.0815
     38 C          62.1463   83.5004   15.2401 C.ar    1  UNL1        0.0105
     39 C          62.4906   84.9583   15.3158 C.ar    1  UNL1        0.0377
     40 C          62.6308   81.1188   14.3217 C.2     1  UNL1        0.3093
     41 N          63.7223   80.0900   14.3108 N.2     1  UNL1       -0.0994
     42 N          61.1949   80.6897   14.2568 N.pl3   1  UNL1       -0.2466
     43 H          64.6647   80.3717   14.3534 H       1  UNL1        0.3633
     44 H          60.4785   81.3649   14.2639 H       1  UNL1        0.2884
     45 H          60.9689   79.7328   14.2070 H       1  UNL1        0.2884
@<TRIPOS>BOND
     1    27    28    2
     2    28    29    1
     3    28    21    1
     4    21    22   ar
     5    22    23   ar
     6    23    24   ar
     7    24    20    1
     8    20     1    1
     9     1     2   ar
    10     2     3   ar
    11     3    33    1
    12    33    34    1
    13    34    35   ar
    14    35    36   ar
    15    36    37   ar
    16    37    40    1
    17    40    41    2
    18    40    42    1
    19    37    38   ar
    20    38    39   ar
    21     3     4   ar
    22     4     5   ar
    23     5     7    1
    24     7     8    2
    25     7     9   am
    26    11     9    1
    27    11    12    1
    28    12    13    1
    29    13    14    1
    30    14    15    1
    31    14    16    1
    32    16    17    1
    33     5     6   ar
    34    24    25   ar
    35    25    26   ar
    36    26    21   ar
    37     6     1   ar
    38    39    34   ar
    39    17    11    1
    40    27    30    1
    41    29    31    1
    42    29    32    1
    43    41    43    1
    44    42    44    1
    45    42    45    1
    46     9    10    1
    47    15    18    1
    48    15    19    1
@<TRIPOS>MOLECULE
*****
 45 48 0 0 0
SMALL
GASTEIGER

@<TRIPOS>ATOM
      1 C          64.2110   86.5704   14.4982 C.ar    1  UNL1        0.1485
      2 C          64.7083   87.8506   15.1014 C.ar    1  UNL1        0.0749
      3 C          64.4522   89.1557   14.4079 C.ar    1  UNL1        0.1485
      4 C          63.6987   89.1807   13.1111 C.ar    1  UNL1        0.0422
      5 C          63.2014   87.9006   12.5079 C.ar    1  UNL1        0.0594
      6 C          63.4575   86.5954   13.2014 C.ar    1  UNL1        0.0422
      7 C          62.4479   87.9256   11.2111 C.2     1  UNL1        0.2460
      8 O          62.8172   86.9754   10.1107 O.2     1  UNL1       -0.2701
      9 N          61.3252   88.9007   11.0147 N.am    1  UNL1       -0.3025
     10 H          61.0828   89.5243   11.7369 H       1  UNL1        0.1497
     11 C          60.5717   88.9256    9.7179 C.3     1  UNL1        0.0719
     12 C          60.6081   90.1506    8.8528 C.3     1  UNL1        0.0209
     13 C          59.8546   90.1755    7.5560 C.3     1  UNL1        0.0172
     14 C          59.0647   88.9756    7.1243 C.3     1  UNL1        0.0509
     15 N          58.3113   89.0006    5.8276 N.3     1  UNL1       -0.3222
     16 C          59.0284   87.7507    7.9894 C.3     1  UNL1        0.0172
     17 C          59.7818   87.7258    9.2862 C.3     1  UNL1        0.0209
     18 H          58.4463   89.9037    5.3732 H       1  UNL1        0.1188
     19 H          57.3179   88.8562    6.0087 H       1  UNL1        0.1188
     20 O          64.4671   85.2653   15.1918 O.3     1  UNL1       -0.4534
     21 C          63.0336   81.4185   13.3488 C.ar    1  UNL1        0.0815
     22 C          64.2734   82.0831   12.8283 C.ar    1  UNL1        0.0105
     23 C          64.7513   83.3654   13.4427 C.ar    1  UNL1        0.0377
     24 C          63.9893   83.9831   14.5775 C.ar    1  UNL1        0.1453
     25 C          62.7494   83.3184   15.0979 C.ar    1  UNL1        0.0377
     26 C          62.2715   82.0362   14.4836 C.ar    1  UNL1        0.0105
     27 N          61.7897   79.1476   13.5626 N.2     1  UNL1       -0.0994
     28 C          62.5557   80.1362   12.7344 C.2     1  UNL1        0.3093
     29 N          62.8438   79.8426   11.2920 N.pl3   1  UNL1       -0.2466
     30 H          61.4761   78.3060   13.1593 H       1  UNL1        0.3633
     31 H          62.5302   79.0010   10.8888 H       1  UNL1        0.2884
     32 H          63.3465   80.4915   10.7484 H       1  UNL1        0.2884
     33 O          64.9496   90.4359   15.0111 O.3     1  UNL1       -0.4534
     34 C          65.3292   91.5849   14.1246 C.ar    1  UNL1        0.1453
     35 C          64.9479   91.5708   12.6739 C.ar    1  UNL1        0.0377
     36 C          65.3275   92.7197   11.7875 C.ar    1  UNL1        0.0105
     37 C          66.0884   93.8828   12.3517 C.ar    1  UNL1        0.0815
     38 C          66.4697   93.8969   13.8024 C.ar    1  UNL1        0.0105
     39 C          66.0900   92.7479   14.6888 C.ar    1  UNL1        0.0377
     40 C          66.4680   95.0318   11.4653 C.2     1  UNL1        0.3093
     41 N          65.9396   96.4062   11.7513 N.2     1  UNL1       -0.0994
     42 N          67.3761   94.8063   10.2928 N.pl3   1  UNL1       -0.2466
     43 H          65.3436   96.5541   12.5208 H       1  UNL1        0.3633
     44 H          67.7229   93.9043   10.1051 H       1  UNL1        0.2884
     45 H          67.6253   95.5604    9.7110 H       1  UNL1        0.2884
@<TRIPOS>BOND
     1    27    28    2
     2    28    29    1
     3    28    21    1
     4    21    22   ar
     5    22    23   ar
     6    23    24   ar
     7    24    20    1
     8    20     1    1
     9     1     2   ar
    10     2     3   ar
    11     3    33    1
    12    33    34    1
    13    34    35   ar
    14    35    36   ar
    15    36    37   ar
    16    37    40    1
    17    40    41    2
    18    40    42    1
    19    37    38   ar
    20    38    39   ar
    21     3     4   ar
    22     4     5   ar
    23     5     7    1
    24     7     8    2
    25     7     9   am
    26    11     9    1
    27    11    12    1
    28    12    13    1
    29    13    14    1
    30    14    15    1
    31    14    16    1
    32    16    17    1
    33     5     6   ar
    34    24    25   ar
    35    25    26   ar
    36    26    21   ar
    37     6     1   ar
    38    39    34   ar
    39    17    11    1
    40    27    30    1
    41    29    31    1
    42    29    32    1
    43    41    43    1
    44    42    44    1
    45    42    45    1
    46     9    10    1
    47    15    18    1
    48    15    19    1
