@<TRIPOS>MOLECULE
*****
 39 42 0 0 0
SMALL
GASTEIGER

@<TRIPOS>ATOM
      1 C          64.0221   90.1636   13.8221 C.2     1  UNL1        0.2522
      2 O          63.2443   90.8560   14.9017 O.2     1  UNL1       -0.2699
      3 N          64.9469   90.9507   12.9415 N.am    1  UNL1       -0.2981
      4 H          65.4574   90.4962   12.2329 H       1  UNL1        0.1498
      5 C          63.9712   83.2938   14.0526 C.ar    1  UNL1        0.1414
      6 C          64.6553   83.8212   15.2789 C.ar    1  UNL1        0.0371
      7 C          64.8023   85.3006   15.4780 C.ar    1  UNL1        0.0062
      8 C          64.2652   86.2527   14.4509 C.ar    1  UNL1        0.0352
      9 C          64.4122   87.7321   14.6501 C.ar    1  UNL1        0.0141
     10 C          63.8751   88.6842   13.6229 C.ar    1  UNL1        0.1293
     11 C          63.1909   88.1568   12.3966 C.ar    1  UNL1        0.3502
     12 O          62.6538   89.1089   11.3695 O.2     1  UNL1       -0.2443
     13 O          63.0439   86.6774   12.1974 O.2     1  UNL1       -0.4208
     14 C          63.5811   85.7253   13.2246 C.ar    1  UNL1        0.1517
     15 C          63.4341   84.2459   13.0255 C.ar    1  UNL1        0.0744
     16 O          63.8242   81.8144   13.8534 O.3     1  UNL1       -0.4791
     17 C          62.5323   81.2515   13.3396 C.3     1  UNL1        0.1659
     18 C          60.2549   80.2773   14.1236 C.3     1  UNL1        0.0038
     19 C          61.2833   81.3686   14.1620 C.3     1  UNL1        0.0435
     20 C          62.4893   80.5714   12.0032 C.3     1  UNL1        0.0435
     21 C          63.1785   81.1910   10.8239 C.3     1  UNL1        0.0038
     22 C          65.0939   92.4301   13.1407 C.3     1  UNL1        0.1229
     23 C          65.6210   93.2879   12.0288 C.3     1  UNL1        0.1482
     24 O          64.8181   92.4975   11.0385 O.3     1  UNL1       -0.3790
     25 H          64.3236   91.8042   11.5030 H       1  UNL1        0.2108
     26 C          66.1481   94.1457   10.9168 C.ar    1  UNL1        0.0159
     27 C          65.6174   95.5355   10.7257 C.ar    1  UNL1       -0.0002
     28 C          66.1446   96.3932    9.6138 C.ar    1  UNL1        0.0112
     29 C          67.2024   95.8611    8.6930 C.ar    1  UNL1        0.0585
     30 CL         67.7296   96.7189    7.5811 Cl      1  UNL1       -0.0822
     31 C          67.7331   94.4713    8.8842 C.ar    1  UNL1        0.0225
     32 C          67.2060   93.6135    9.9961 C.ar    1  UNL1        0.0568
     33 CL         67.7367   92.2236   10.1873 Cl      1  UNL1       -0.0825
     34 C          66.4239   94.0782   13.0190 C.3     1  UNL1        0.1618
     35 N          67.3046   93.3705   14.0057 N.ar    1  UNL1       -0.2273
     36 C          67.2473   93.5111   15.4980 C.ar    1  UNL1        0.1973
     37 N          68.3046   92.6255   16.0880 N.ar    1  UNL1       -0.2007
     38 C          69.0153   91.9377   14.9603 C.ar    1  UNL1        0.2210
     39 N          68.3974   92.3981   13.6734 N.ar    1  UNL1       -0.1451
@<TRIPOS>BOND
     1    18    19    1
     2    19    17    1
     3    17    20    1
     4    20    21    1
     5    17    16    1
     6    16     5    1
     7     5     6   ar
     8     6     7   ar
     9     7     8   ar
    10     8     9   ar
    11     9    10   ar
    12    10     1    1
    13     1     2    2
    14     1     3   am
    15     3    22    1
    16    22    23    1
    17    23    24    1
    18    23    34    1
    19    34    35    1
    20    35    36   ar
    21    36    37   ar
    22    37    38   ar
    23    38    39   ar
    24    23    26    1
    25    26    27   ar
    26    27    28   ar
    27    28    29   ar
    28    29    30    1
    29    29    31   ar
    30    31    32   ar
    31    32    33    1
    32    10    11   ar
    33    11    12    2
    34    11    13   ar
    35    13    14   ar
    36    14    15   ar
    37    15     5   ar
    38    14     8   ar
    39    39    35   ar
    40    32    26   ar
    41     3     4    1
    42    24    25    1
@<TRIPOS>MOLECULE
*****
 39 42 0 0 0
SMALL
GASTEIGER

@<TRIPOS>ATOM
      1 C          63.9585   88.1697   14.3456 C.2     1  UNL1        0.2522
      2 O          63.5786   88.1369   15.7963 O.2     1  UNL1       -0.2699
      3 N          64.0351   86.8933   13.5613 N.am    1  UNL1       -0.2981
      4 H          64.2845   86.9148   12.6092 H       1  UNL1        0.1498
      5 C          66.1839   94.3367   12.2802 C.ar    1  UNL1        0.1414
      6 C          66.8920   93.9582   13.5472 C.ar    1  UNL1        0.0371
      7 C          66.5886   92.6491   14.2137 C.ar    1  UNL1        0.0062
      8 C          65.5770   91.7185   13.6132 C.ar    1  UNL1        0.0352
      9 C          65.2736   90.4094   14.2796 C.ar    1  UNL1        0.0141
     10 C          64.2620   89.4788   13.6791 C.ar    1  UNL1        0.1293
     11 C          63.5538   89.8572   12.4121 C.ar    1  UNL1        0.3502
     12 O          62.5423   88.9266   11.8116 O.2     1  UNL1       -0.2443
     13 O          63.8573   91.1663   11.7456 O.2     1  UNL1       -0.4208
     14 C          64.8689   92.0970   12.3462 C.ar    1  UNL1        0.1517
     15 C          65.1724   93.4060   11.6797 C.ar    1  UNL1        0.0744
     16 O          66.4874   95.6458   11.6137 O.3     1  UNL1       -0.4791
     17 C          66.7095   95.6989   10.1313 C.3     1  UNL1        0.1659
     18 C          66.0435   96.6065    7.7897 C.3     1  UNL1        0.0038
     19 C          65.7747   96.4850    9.2605 C.3     1  UNL1        0.0435
     20 C          67.8665   94.9659    9.5195 C.3     1  UNL1        0.0435
     21 C          67.7322   93.5145    9.1655 C.3     1  UNL1        0.0038
     22 C          63.7316   85.5842   14.2278 C.3     1  UNL1        0.1229
     23 C          63.5733   84.3415   13.4028 C.3     1  UNL1        0.1482
     24 O          64.9573   83.9097   13.7876 O.3     1  UNL1       -0.3790
     25 H          65.3521   84.5743   14.3735 H       1  UNL1        0.2108
     26 C          63.4150   83.0988   12.5778 C.ar    1  UNL1        0.0159
     27 C          64.0572   83.0096   11.2252 C.ar    1  UNL1       -0.0002
     28 C          63.8988   81.7669   10.4002 C.ar    1  UNL1        0.0112
     29 C          63.0982   80.6134   10.9279 C.ar    1  UNL1        0.0585
     30 CL         62.9399   79.3706   10.1028 Cl      1  UNL1       -0.0822
     31 C          62.4560   80.7025   12.2805 C.ar    1  UNL1        0.0225
     32 C          62.6144   81.9452   13.1054 C.ar    1  UNL1        0.0568
     33 CL         61.9722   82.0344   14.4581 Cl      1  UNL1       -0.0825
     34 C          62.1893   84.7733   13.0180 C.3     1  UNL1        0.1618
     35 N          61.9572   85.4679   11.7090 N.ar    1  UNL1       -0.2273
     36 C          62.7423   85.2583   10.4482 C.ar    1  UNL1        0.1973
     37 N          62.1695   86.1550    9.3909 N.ar    1  UNL1       -0.2007
     38 C          61.0302   86.9187    9.9982 C.ar    1  UNL1        0.2210
     39 N          60.8989   86.4941   11.4309 N.ar    1  UNL1       -0.1451
@<TRIPOS>BOND
     1    18    19    1
     2    19    17    1
     3    17    20    1
     4    20    21    1
     5    17    16    1
     6    16     5    1
     7     5     6   ar
     8     6     7   ar
     9     7     8   ar
    10     8     9   ar
    11     9    10   ar
    12    10     1    1
    13     1     2    2
    14     1     3   am
    15     3    22    1
    16    22    23    1
    17    23    24    1
    18    23    34    1
    19    34    35    1
    20    35    36   ar
    21    36    37   ar
    22    37    38   ar
    23    38    39   ar
    24    23    26    1
    25    26    27   ar
    26    27    28   ar
    27    28    29   ar
    28    29    30    1
    29    29    31   ar
    30    31    32   ar
    31    32    33    1
    32    10    11   ar
    33    11    12    2
    34    11    13   ar
    35    13    14   ar
    36    14    15   ar
    37    15     5   ar
    38    14     8   ar
    39    39    35   ar
    40    32    26   ar
    41     3     4    1
    42    24    25    1
@<TRIPOS>MOLECULE
*****
 39 42 0 0 0
SMALL
GASTEIGER

@<TRIPOS>ATOM
      1 C          63.6737   88.6644   15.0475 C.2     1  UNL1        0.2522
      2 O          63.0794   89.0216   16.3776 O.2     1  UNL1       -0.2699
      3 N          63.8855   87.2248   14.6828 N.am    1  UNL1       -0.2981
      4 H          64.2755   86.9904   13.8098 H       1  UNL1        0.1498
      5 C          66.2223   94.0226   11.5770 C.ar    1  UNL1        0.1414
      6 C          66.8586   93.9692   12.9343 C.ar    1  UNL1        0.0371
      7 C          66.4761   92.8869   13.8999 C.ar    1  UNL1        0.0062
      8 C          65.4574   91.8580   13.5081 C.ar    1  UNL1        0.0352
      9 C          65.0749   90.7756   14.4737 C.ar    1  UNL1        0.0141
     10 C          64.0562   89.7467   14.0819 C.ar    1  UNL1        0.1293
     11 C          63.4199   89.8001   12.7246 C.ar    1  UNL1        0.3502
     12 O          62.4012   88.7712   12.3328 O.2     1  UNL1       -0.2443
     13 O          63.8024   90.8824   11.7590 O.2     1  UNL1       -0.4208
     14 C          64.8211   91.9114   12.1508 C.ar    1  UNL1        0.1517
     15 C          65.2036   92.9937   11.1853 C.ar    1  UNL1        0.0744
     16 O          66.6048   95.1049   10.6115 O.3     1  UNL1       -0.4791
     17 C          67.4810   94.7865    9.4365 C.3     1  UNL1        0.1659
     18 C          68.3574   92.3912    8.9417 C.3     1  UNL1        0.0038
     19 C          68.5522   93.7438    9.5604 C.3     1  UNL1        0.0435
     20 C          67.2861   95.5107    8.1374 C.3     1  UNL1        0.0435
     21 C          66.3011   96.6384    8.0478 C.3     1  UNL1        0.0038
     22 C          63.5030   86.1425   15.6484 C.3     1  UNL1        0.1229
     23 C          63.2472   84.7505   15.1518 C.3     1  UNL1        0.1482
     24 O          62.5204   84.4301   16.4242 O.3     1  UNL1       -0.3790
     25 H          62.5197   85.2098   17.0012 H       1  UNL1        0.2108
     26 C          62.9914   83.3583   14.6551 C.ar    1  UNL1        0.0159
     27 C          61.5891   82.8295   14.5945 C.ar    1  UNL1       -0.0002
     28 C          61.3333   81.4374   14.0978 C.ar    1  UNL1        0.0112
     29 C          62.4799   80.5742   13.6617 C.ar    1  UNL1        0.0585
     30 CL         62.2241   79.1821   13.1651 Cl      1  UNL1       -0.0822
     31 C          63.8823   81.1031   13.7223 C.ar    1  UNL1        0.0225
     32 C          64.1380   82.4951   14.2190 C.ar    1  UNL1        0.0568
     33 CL         65.5404   83.0240   14.2796 Cl      1  UNL1       -0.0825
     34 C          63.9740   85.0708   13.8794 C.3     1  UNL1        0.1618
     35 N          63.2324   85.0872   12.5757 N.ar    1  UNL1       -0.2273
     36 C          63.5978   84.3136   11.3436 C.ar    1  UNL1        0.1973
     37 N          62.5863   84.6283   10.2816 N.ar    1  UNL1       -0.2007
     38 C          61.5957   85.5964   10.8573 C.ar    1  UNL1        0.2210
     39 N          61.9949   85.8801   12.2751 N.ar    1  UNL1       -0.1451
@<TRIPOS>BOND
     1    18    19    1
     2    19    17    1
     3    17    20    1
     4    20    21    1
     5    17    16    1
     6    16     5    1
     7     5     6   ar
     8     6     7   ar
     9     7     8   ar
    10     8     9   ar
    11     9    10   ar
    12    10     1    1
    13     1     2    2
    14     1     3   am
    15     3    22    1
    16    22    23    1
    17    23    24    1
    18    23    34    1
    19    34    35    1
    20    35    36   ar
    21    36    37   ar
    22    37    38   ar
    23    38    39   ar
    24    23    26    1
    25    26    27   ar
    26    27    28   ar
    27    28    29   ar
    28    29    30    1
    29    29    31   ar
    30    31    32   ar
    31    32    33    1
    32    10    11   ar
    33    11    12    2
    34    11    13   ar
    35    13    14   ar
    36    14    15   ar
    37    15     5   ar
    38    14     8   ar
    39    39    35   ar
    40    32    26   ar
    41     3     4    1
    42    24    25    1
@<TRIPOS>MOLECULE
*****
 39 42 0 0 0
SMALL
GASTEIGER

@<TRIPOS>ATOM
      1 C          59.0095   89.7110    6.3215 C.2     1  UNL1        0.2522
      2 O          57.5412   89.5027    6.5468 O.2     1  UNL1       -0.2699
      3 N          60.0093   88.9357    7.1274 N.am    1  UNL1       -0.2981
      4 H          60.9730   89.0724    6.9795 H       1  UNL1        0.1498
      5 C          62.3093   93.6217    1.7316 C.ar    1  UNL1        0.1414
      6 C          63.2666   92.6151    2.2976 C.ar    1  UNL1        0.0371
      7 C          62.7981   91.6317    3.3287 C.ar    1  UNL1        0.0062
      8 C          61.3723   91.6548    3.7940 C.ar    1  UNL1        0.0352
      9 C          60.9038   90.6713    4.8251 C.ar    1  UNL1        0.0141
     10 C          59.4780   90.6944    5.2904 C.ar    1  UNL1        0.1293
     11 C          58.5206   91.7010    4.7244 C.ar    1  UNL1        0.3502
     12 O          57.0948   91.7241    5.1896 O.2     1  UNL1       -0.2443
     13 O          58.9891   92.6845    3.6933 O.2     1  UNL1       -0.4208
     14 C          60.4150   92.6614    3.2280 C.ar    1  UNL1        0.1517
     15 C          60.8835   93.6448    2.1969 C.ar    1  UNL1        0.0744
     16 O          62.7778   94.6052    0.7005 O.3     1  UNL1       -0.4791
     17 C          62.9366   94.1758   -0.7279 C.3     1  UNL1        0.1659
     18 C          65.0751   95.6373   -0.9312 C.3     1  UNL1        0.0038
     19 C          64.1046   94.6642   -1.5324 C.3     1  UNL1        0.0435
     20 C          61.9275   93.2579   -1.3518 C.3     1  UNL1        0.0435
     21 C          61.1001   93.7296   -2.5107 C.3     1  UNL1        0.0038
     22 C          59.5408   87.9522    8.1586 C.3     1  UNL1        0.1229
     23 C          60.5130   86.9891    8.7727 C.3     1  UNL1        0.1482
     24 O          59.8524   85.8571    8.0431 O.3     1  UNL1       -0.3790
     25 H          59.1173   86.2004    7.5114 H       1  UNL1        0.2108
     26 C          61.4852   86.0259    9.3868 C.ar    1  UNL1        0.0159
     27 C          61.5290   85.8516   10.8760 C.ar    1  UNL1       -0.0002
     28 C          62.5012   84.8885   11.4901 C.ar    1  UNL1        0.0112
     29 C          63.4296   84.0997   10.6150 C.ar    1  UNL1        0.0585
     30 CL         64.4019   83.1365   11.2292 Cl      1  UNL1       -0.0822
     31 C          63.3859   84.2740    9.1258 C.ar    1  UNL1        0.0225
     32 C          62.4137   85.2371    8.5118 C.ar    1  UNL1        0.0568
     33 CL         62.3699   85.4115    7.0225 Cl      1  UNL1       -0.0825
     34 C          61.1735   88.1210    9.5023 C.3     1  UNL1        0.1618
     35 N          60.3931   88.9302   10.4954 N.ar    1  UNL1       -0.2273
     36 C          60.1258   90.4040   10.4162 C.ar    1  UNL1        0.1973
     37 N          59.3105   90.7923   11.6139 N.ar    1  UNL1       -0.2007
     38 C          59.0740   89.5584   12.4334 C.ar    1  UNL1        0.2210
     39 N          59.7430   88.4075   11.7421 N.ar    1  UNL1       -0.1451
@<TRIPOS>BOND
     1    18    19    1
     2    19    17    1
     3    17    20    1
     4    20    21    1
     5    17    16    1
     6    16     5    1
     7     5     6   ar
     8     6     7   ar
     9     7     8   ar
    10     8     9   ar
    11     9    10   ar
    12    10     1    1
    13     1     2    2
    14     1     3   am
    15     3    22    1
    16    22    23    1
    17    23    24    1
    18    23    34    1
    19    34    35    1
    20    35    36   ar
    21    36    37   ar
    22    37    38   ar
    23    38    39   ar
    24    23    26    1
    25    26    27   ar
    26    27    28   ar
    27    28    29   ar
    28    29    30    1
    29    29    31   ar
    30    31    32   ar
    31    32    33    1
    32    10    11   ar
    33    11    12    2
    34    11    13   ar
    35    13    14   ar
    36    14    15   ar
    37    15     5   ar
    38    14     8   ar
    39    39    35   ar
    40    32    26   ar
    41     3     4    1
    42    24    25    1
@<TRIPOS>MOLECULE
*****
 39 42 0 0 0
SMALL
GASTEIGER

@<TRIPOS>ATOM
      1 C          59.5141   89.5443    6.9859 C.2     1  UNL1        0.2522
      2 O          58.6876   88.2956    6.9002 O.2     1  UNL1       -0.2699
      3 N          60.2315   89.8831    8.2589 N.am    1  UNL1       -0.2981
      4 H          60.7740   90.7027    8.3152 H       1  UNL1        0.1498
      5 C          61.2874   93.4367    1.6049 C.ar    1  UNL1        0.1414
      6 C          62.5153   92.7785    2.1607 C.ar    1  UNL1        0.0371
      7 C          62.4063   91.8684    3.3481 C.ar    1  UNL1        0.0062
      8 C          61.0693   91.6165    3.9796 C.ar    1  UNL1        0.0352
      9 C          60.9602   90.7064    5.1670 C.ar    1  UNL1        0.0141
     10 C          59.6232   90.4545    5.7985 C.ar    1  UNL1        0.1293
     11 C          58.3952   91.1127    5.2428 C.ar    1  UNL1        0.3502
     12 O          57.0582   90.8608    5.8743 O.2     1  UNL1       -0.2443
     13 O          58.5042   92.0228    4.0554 O.2     1  UNL1       -0.4208
     14 C          59.8413   92.2747    3.4239 C.ar    1  UNL1        0.1517
     15 C          59.9504   93.1848    2.2365 C.ar    1  UNL1        0.0744
     16 O          61.3965   94.3468    0.4176 O.3     1  UNL1       -0.4791
     17 C          61.3945   93.7744   -0.9688 C.3     1  UNL1        0.1659
     18 C          63.9917   93.8306   -1.0081 C.3     1  UNL1        0.0038
     19 C          62.6912   93.4332   -1.6413 C.3     1  UNL1        0.0435
     20 C          60.0958   93.5432   -1.6830 C.3     1  UNL1        0.0435
     21 C          59.1418   92.4982   -1.1851 C.3     1  UNL1        0.0038
     22 C          60.1224   88.9730    9.4463 C.3     1  UNL1        0.1229
     23 C          60.9678   87.7363    9.5235 C.3     1  UNL1        0.1482
     24 O          59.7291   86.8904    9.5356 O.3     1  UNL1       -0.3790
     25 H          58.9468   87.4620    9.4911 H       1  UNL1        0.2108
     26 C          61.8132   86.4996    9.6008 C.ar    1  UNL1        0.0159
     27 C          62.5153   85.9933    8.3757 C.ar    1  UNL1       -0.0002
     28 C          63.3606   84.7567    8.4530 C.ar    1  UNL1        0.0112
     29 C          63.5039   84.0263    9.7553 C.ar    1  UNL1        0.0585
     30 CL         64.3493   82.7896    9.8326 Cl      1  UNL1       -0.0822
     31 C          62.8018   84.5325   10.9803 C.ar    1  UNL1        0.0225
     32 C          61.9565   85.7692   10.9031 C.ar    1  UNL1        0.0568
     33 CL         61.2543   86.2755   12.1281 Cl      1  UNL1       -0.0825
     34 C          62.2064   88.5822    9.5115 C.3     1  UNL1        0.1618
     35 N          62.5721   89.3939   10.7187 N.ar    1  UNL1       -0.2273
     36 C          63.1235   90.7888   10.7094 C.ar    1  UNL1        0.1973
     37 N          63.3427   91.2102   12.1322 N.ar    1  UNL1       -0.2007
     38 C          62.9269   90.0757   13.0209 C.ar    1  UNL1        0.2210
     39 N          62.4505   88.9531   12.1474 N.ar    1  UNL1       -0.1451
@<TRIPOS>BOND
     1    18    19    1
     2    19    17    1
     3    17    20    1
     4    20    21    1
     5    17    16    1
     6    16     5    1
     7     5     6   ar
     8     6     7   ar
     9     7     8   ar
    10     8     9   ar
    11     9    10   ar
    12    10     1    1
    13     1     2    2
    14     1     3   am
    15     3    22    1
    16    22    23    1
    17    23    24    1
    18    23    34    1
    19    34    35    1
    20    35    36   ar
    21    36    37   ar
    22    37    38   ar
    23    38    39   ar
    24    23    26    1
    25    26    27   ar
    26    27    28   ar
    27    28    29   ar
    28    29    30    1
    29    29    31   ar
    30    31    32   ar
    31    32    33    1
    32    10    11   ar
    33    11    12    2
    34    11    13   ar
    35    13    14   ar
    36    14    15   ar
    37    15     5   ar
    38    14     8   ar
    39    39    35   ar
    40    32    26   ar
    41     3     4    1
    42    24    25    1
@<TRIPOS>MOLECULE
*****
 39 42 0 0 0
SMALL
GASTEIGER

@<TRIPOS>ATOM
      1 C          64.0807   88.1784   14.6067 C.2     1  UNL1        0.2522
      2 O          63.5529   88.2739   16.0074 O.2     1  UNL1       -0.2699
      3 N          64.3627   86.8351   14.0014 N.am    1  UNL1       -0.2981
      4 H          64.7092   86.7724   13.0820 H       1  UNL1        0.1498
      5 C          66.0352   94.1977   11.9239 C.ar    1  UNL1        0.1414
      6 C          66.7599   93.9789   13.2188 C.ar    1  UNL1        0.0371
      7 C          66.5139   92.7312   14.0144 C.ar    1  UNL1        0.0062
      8 C          65.5433   91.7024   13.5150 C.ar    1  UNL1        0.0352
      9 C          65.2973   90.4548   14.3105 C.ar    1  UNL1        0.0141
     10 C          64.3267   89.4260   13.8111 C.ar    1  UNL1        0.1293
     11 C          63.6020   89.6448   12.5161 C.ar    1  UNL1        0.3502
     12 O          62.6314   88.6161   12.0167 O.2     1  UNL1       -0.2443
     13 O          63.8479   90.8925   11.7206 O.2     1  UNL1       -0.4208
     14 C          64.8186   91.9213   12.2200 C.ar    1  UNL1        0.1517
     15 C          65.0646   93.1689   11.4245 C.ar    1  UNL1        0.0744
     16 O          66.2812   95.4454   11.1283 O.3     1  UNL1       -0.4791
     17 C          66.9497   95.3608    9.7882 C.3     1  UNL1        0.1659
     18 C          68.5517   93.3316    9.5316 C.3     1  UNL1        0.0038
     19 C          67.2643   94.0216    9.1902 C.3     1  UNL1        0.0435
     20 C          67.3036   96.6154    9.0461 C.3     1  UNL1        0.0435
     21 C          66.7509   96.8555    7.6725 C.3     1  UNL1        0.0038
     22 C          64.1167   85.5875   14.7969 C.3     1  UNL1        0.1229
     23 C          63.8129   84.2976   14.0942 C.3     1  UNL1        0.1482
     24 O          65.0562   84.4539   13.2698 O.3     1  UNL1       -0.3790
     25 H          65.5094   85.2740   13.5205 H       1  UNL1        0.2108
     26 C          63.5090   83.0077   13.3915 C.ar    1  UNL1        0.0159
     27 C          63.5419   81.7143   14.1504 C.ar    1  UNL1       -0.0002
     28 C          63.2381   80.4244   13.4477 C.ar    1  UNL1        0.0112
     29 C          62.9012   80.4279   11.9860 C.ar    1  UNL1        0.0585
     30 CL         62.5973   79.1380   11.2833 Cl      1  UNL1       -0.0822
     31 C          62.8682   81.7213   11.2271 C.ar    1  UNL1        0.0225
     32 C          63.1721   83.0112   11.9298 C.ar    1  UNL1        0.0568
     33 CL         63.1392   84.3046   11.1708 Cl      1  UNL1       -0.0825
     34 C          62.5696   84.1413   14.9186 C.3     1  UNL1        0.1618
     35 N          62.3062   85.0747   16.0630 N.ar    1  UNL1       -0.2273
     36 C          61.0803   85.9189   16.2480 C.ar    1  UNL1        0.1973
     37 N          61.2389   86.6936   17.5226 N.ar    1  UNL1       -0.2007
     38 C          62.5630   86.3282   18.1254 C.ar    1  UNL1        0.2210
     39 N          63.2227   85.3277   17.2233 N.ar    1  UNL1       -0.1451
@<TRIPOS>BOND
     1    18    19    1
     2    19    17    1
     3    17    20    1
     4    20    21    1
     5    17    16    1
     6    16     5    1
     7     5     6   ar
     8     6     7   ar
     9     7     8   ar
    10     8     9   ar
    11     9    10   ar
    12    10     1    1
    13     1     2    2
    14     1     3   am
    15     3    22    1
    16    22    23    1
    17    23    24    1
    18    23    34    1
    19    34    35    1
    20    35    36   ar
    21    36    37   ar
    22    37    38   ar
    23    38    39   ar
    24    23    26    1
    25    26    27   ar
    26    27    28   ar
    27    28    29   ar
    28    29    30    1
    29    29    31   ar
    30    31    32   ar
    31    32    33    1
    32    10    11   ar
    33    11    12    2
    34    11    13   ar
    35    13    14   ar
    36    14    15   ar
    37    15     5   ar
    38    14     8   ar
    39    39    35   ar
    40    32    26   ar
    41     3     4    1
    42    24    25    1
@<TRIPOS>MOLECULE
*****
 39 42 0 0 0
SMALL
GASTEIGER

@<TRIPOS>ATOM
      1 C          61.5777   94.2090    1.4120 C.2     1  UNL1        0.2522
      2 O          60.8242   95.5056    1.3814 O.2     1  UNL1       -0.2699
      3 N          62.6413   93.9353    0.3902 N.am    1  UNL1       -0.2981
      4 H          63.1359   93.0843    0.4103 H       1  UNL1        0.1498
      5 C          58.9383   89.9778    6.1428 C.ar    1  UNL1        0.1414
      6 C          57.8487   90.8615    5.6118 C.ar    1  UNL1        0.0371
      7 C          58.1587   91.8845    4.5595 C.ar    1  UNL1        0.0062
      8 C          59.5582   92.0238    4.0381 C.ar    1  UNL1        0.0352
      9 C          59.8682   93.0467    2.9857 C.ar    1  UNL1        0.0141
     10 C          61.2677   93.1860    2.4643 C.ar    1  UNL1        0.1293
     11 C          62.3574   92.3023    2.9953 C.ar    1  UNL1        0.3502
     12 O          63.7569   92.4416    2.4739 O.2     1  UNL1       -0.2443
     13 O          62.0474   91.2793    4.0476 O.2     1  UNL1       -0.4208
     14 C          60.6478   91.1401    4.5690 C.ar    1  UNL1        0.1517
     15 C          60.3378   90.1171    5.6214 C.ar    1  UNL1        0.0744
     16 O          58.6283   88.9549    7.1951 O.3     1  UNL1       -0.4791
     17 C          59.7364   88.3607    8.0130 C.3     1  UNL1        0.1659
     18 C          61.1814   86.3109    8.6917 C.3     1  UNL1        0.0038
     19 C          60.0493   86.8979    7.9018 C.3     1  UNL1        0.0435
     20 C          60.5317   89.2293    8.9420 C.3     1  UNL1        0.0435
     21 C          60.1091   89.3807   10.3732 C.3     1  UNL1        0.0038
     22 C          62.9513   94.9582   -0.6622 C.3     1  UNL1        0.1229
     23 C          63.4326   94.5215   -2.0140 C.3     1  UNL1        0.1482
     24 O          64.6518   93.9158   -1.3842 O.3     1  UNL1       -0.3790
     25 H          64.6211   94.0515   -0.4243 H       1  UNL1        0.2108
     26 C          63.9139   94.0847   -3.3659 C.ar    1  UNL1        0.0159
     27 C          63.5513   92.7262   -3.8883 C.ar    1  UNL1       -0.0002
     28 C          64.0326   92.2895   -5.2402 C.ar    1  UNL1        0.0112
     29 C          64.8765   93.2112   -6.0697 C.ar    1  UNL1        0.0585
     30 CL         65.3578   92.7745   -7.4216 Cl      1  UNL1       -0.0822
     31 C          65.2391   94.5698   -5.5473 C.ar    1  UNL1        0.0225
     32 C          64.7578   95.0065   -4.1955 C.ar    1  UNL1        0.0568
     33 CL         65.1205   96.3650   -3.6730 Cl      1  UNL1       -0.0825
     34 C          62.2134   95.1272   -2.6438 C.3     1  UNL1        0.1618
     35 N          60.8473   94.6759   -2.2194 N.ar    1  UNL1       -0.2273
     36 C          59.6556   95.5599   -1.9994 C.ar    1  UNL1        0.1973
     37 N          58.5048   94.6918   -1.5846 N.ar    1  UNL1       -0.2007
     38 C          58.9852   93.2713   -1.5482 C.ar    1  UNL1        0.2210
     39 N          60.4330   93.2614   -1.9406 N.ar    1  UNL1       -0.1451
@<TRIPOS>BOND
     1    18    19    1
     2    19    17    1
     3    17    20    1
     4    20    21    1
     5    17    16    1
     6    16     5    1
     7     5     6   ar
     8     6     7   ar
     9     7     8   ar
    10     8     9   ar
    11     9    10   ar
    12    10     1    1
    13     1     2    2
    14     1     3   am
    15     3    22    1
    16    22    23    1
    17    23    24    1
    18    23    34    1
    19    34    35    1
    20    35    36   ar
    21    36    37   ar
    22    37    38   ar
    23    38    39   ar
    24    23    26    1
    25    26    27   ar
    26    27    28   ar
    27    28    29   ar
    28    29    30    1
    29    29    31   ar
    30    31    32   ar
    31    32    33    1
    32    10    11   ar
    33    11    12    2
    34    11    13   ar
    35    13    14   ar
    36    14    15   ar
    37    15     5   ar
    38    14     8   ar
    39    39    35   ar
    40    32    26   ar
    41     3     4    1
    42    24    25    1
