@<TRIPOS>MOLECULE
*****
 34 38 0 0 0
SMALL
GASTEIGER

@<TRIPOS>ATOM
      1 C          59.9387   89.0339    8.1587 C.3     1  UNL1        0.1411
      2 O          60.1136   90.4851    8.4956 O.3     1  UNL1       -0.3753
      3 C          59.4943   87.7840    7.4584 C.3     1  UNL1        0.0395
      4 C          60.0736   86.6109    8.1919 C.3     1  UNL1        0.0035
      5 C          60.8761   87.1356    9.3454 C.3     1  UNL1        0.0033
      6 C          61.6720   86.4433   10.4119 C.3     1  UNL1        0.0010
      7 C          61.7553   84.9457   10.4324 C.3     1  UNL1        0.0044
      8 C          62.5512   84.2534   11.4988 C.3     1  UNL1        0.0221
      9 C          63.2637   85.0587   12.5448 C.2     1  UNL1       -0.0420
     10 C          64.0595   84.3663   13.6112 C.2     1  UNL1        0.0289
     11 C          64.7720   85.1716   14.6571 C.2     1  UNL1        0.1725
     12 O          65.5679   84.4793   15.7236 O.2     1  UNL1       -0.2914
     13 C          64.6886   86.6691   14.6366 C.3     1  UNL1        0.0694
     14 C          63.8928   87.3614   13.5702 C.3     1  UNL1        0.0119
     15 C          63.1803   86.5562   12.5243 C.3     1  UNL1        0.0160
     16 C          63.0969   88.0537   12.5038 C.3     1  UNL1        0.0041
     17 C          62.3844   87.2485   11.4578 C.3     1  UNL1        0.0075
     18 C          62.3010   88.7461   11.4373 C.3     1  UNL1        0.0227
     19 C          61.5052   89.4384   10.3708 C.3     1  UNL1        0.0076
     20 C          60.7927   88.6331    9.3249 C.3     1  UNL1        0.0336
     21 C          60.7246   90.1316    9.3257 C.3     1  UNL1        0.0033
     22 H          59.6287   91.0268    7.8535 H       1  UNL1        0.2114
     23 C          63.0136   89.5513   12.4832 C.ar    1  UNL1       -0.0224
     24 C          62.4898   89.5866   13.8884 C.ar    1  UNL1       -0.0030
     25 C          63.2024   90.3918   14.9343 C.ar    1  UNL1        0.0142
     26 C          64.4386   91.1617   14.5750 C.ar    1  UNL1        0.0479
     27 C          64.9623   91.1264   13.1699 C.ar    1  UNL1        0.0142
     28 C          64.2498   90.3212   12.1240 C.ar    1  UNL1       -0.0030
     29 N          65.1511   91.9669   15.6210 N.pl3   1  UNL1       -0.3041
     30 C          66.5043   92.5449   15.3298 C.3     1  UNL1        0.1122
     31 C          64.5104   92.1941   16.9581 C.3     1  UNL1        0.1122
     32 C          57.5511   91.1108    4.9593 C.3     1  UNL1        0.0900
     33 C          58.3470   90.4185    6.0258 C.1     1  UNL1       -0.0878
     34 C          59.1428   89.7262    7.0922 C.1     1  UNL1       -0.0657
@<TRIPOS>BOND
     1    32    33    1
     2    33    34    3
     3    34     1    1
     4     1     2    1
     5     1     3    1
     6     3     4    1
     7     5     4    1
     8     5     6    1
     9     6     7    1
    10     7     8    1
    11     8     9    1
    12     9    10    2
    13    10    11    1
    14    11    12    2
    15    11    13    1
    16    13    14    1
    17    14    15    1
    18    15    16    1
    19    15    17    1
    20    17    18    1
    21    18    23    1
    22    23    24   ar
    23    24    25   ar
    24    25    26   ar
    25    26    29    1
    26    29    30    1
    27    29    31    1
    28    26    27   ar
    29    27    28   ar
    30    18    19    1
    31    19    20    1
    32    20    21    1
    33    20     1    1
    34    20     5    1
    35    17     6    1
    36    28    23   ar
    37    15     9    1
    38     2    22    1
