@<TRIPOS>MOLECULE
*****
 42 48 0 0 0
SMALL
GASTEIGER

@<TRIPOS>ATOM
      1 N          60.9336   89.0259    8.2471 N.pl3   1  UNL1       -0.3075
      2 C          60.6755   87.5556    8.3947 C.3     1  UNL1        0.0911
      3 C          61.2531   86.8059    9.5584 C.3     1  UNL1        0.0258
      4 C          62.0888   87.5264   10.5746 C.3     1  UNL1        0.0256
      5 C          62.0507   86.1019   11.0429 C.2     1  UNL1       -0.0304
      6 C          62.9057   86.4661   12.2203 C.2     1  UNL1       -0.0219
      7 C          62.9438   87.8906   11.7519 C.3     1  UNL1        0.0303
      8 C          62.3469   88.9966   10.4269 C.3     1  UNL1        0.0258
      9 C          61.7693   89.7464    9.2632 C.3     1  UNL1        0.0911
     10 CA         59.5031   92.4211    2.4440 C.ar    1  UNL1        0.0951
     11 C          60.9609   92.0679    2.4596 C.ar    1  UNL1        0.0242
     12 C          61.5385   91.3182    3.6233 C.ar    1  UNL1        0.0744
     13 C          60.6584   90.9217    4.7715 C.ar    1  UNL1        0.0228
     14 C          61.2361   90.1720    5.9352 C.ar    1  UNL1        0.0160
     15 C          60.3560   89.7756    7.0833 C.ar    1  UNL1        0.0479
     16 C          58.8983   90.1288    7.0677 C.ar    1  UNL1        0.0161
     17 C          58.3206   90.8785    5.9040 C.ar    1  UNL1        0.0204
     18 C          59.2007   91.2750    4.7559 C.ar    1  UNL1        0.0813
     19 N          58.6231   92.0247    3.5921 N.ar    1  UNL1       -0.2442
     20 C          62.9962   90.9649    3.6388 C.3     1  UNL1        0.4187
     21 F          64.4540   90.6117    3.6544 F       1  UNL1       -0.1659
     22 F          62.6442   89.5089    3.5613 F       1  UNL1       -0.1659
     23 F          63.3483   92.4210    3.7164 F       1  UNL1       -0.1659
     24 O          59.1573   94.6470    1.1494 O.co2   1  UNL1       -0.5430
     25 C          58.9255   93.1709    1.2802 C.2     1  UNL1        0.0905
     26 OXT        58.1161   92.4444    0.2473 O.co2   1  UNL1       -0.5430
     27 C          63.4832   85.7163   13.3840 C.ar    1  UNL1        0.0495
     28 C          63.7180   84.2363   13.4504 C.ar    1  UNL1        0.1239
     29 N          64.3073   83.9202   14.7931 N.ar    1  UNL1       -0.0773
     30 O          64.4368   85.2049   15.5565 O.2     1  UNL1       -0.3578
     31 C          63.9275   86.3149   14.6856 C.ar    1  UNL1        0.1535
     32 C          63.4164   83.2462   12.3647 C.ar    1  UNL1        0.0451
     33 C          64.1482   83.3204   11.0574 C.ar    1  UNL1        0.0791
     34 CL         65.1816   84.3849   10.8358 Cl      1  UNL1       -0.0805
     35 C          63.8465   82.3303    9.9718 C.ar    1  UNL1        0.1103
     36 N          62.8131   81.2659   10.1934 N.ar    1  UNL1       -0.2405
     37 C          62.0813   81.1916   11.5007 C.ar    1  UNL1        0.1103
     38 C          62.3830   82.1817   12.5863 C.ar    1  UNL1        0.0791
     39 CL         61.6512   82.1075   13.8936 Cl      1  UNL1       -0.0805
     40 C          63.8721   87.7684   15.0521 C.3     1  UNL1        0.0602
     41 C          63.4229   88.8579   15.9801 C.3     1  UNL1        0.0081
     42 C          64.2255   89.1964   14.7589 C.3     1  UNL1        0.0081
@<TRIPOS>UNITY_ATOM_ATTR
24 1
charge -1
@<TRIPOS>BOND
     1    24    25   ar
     2    25    26   ar
     3    25    10    1
     4    10    11   ar
     5    11    12   ar
     6    12    20    1
     7    20    21    1
     8    20    22    1
     9    20    23    1
    10    12    13   ar
    11    13    14   ar
    12    14    15   ar
    13    15     1    1
    14     1     2    1
    15     2     3    1
    16     3     4    1
    17     4     5    1
    18     5     6    2
    19     6    27    1
    20    27    28   ar
    21    28    32    1
    22    32    33   ar
    23    33    34    1
    24    33    35   ar
    25    35    36   ar
    26    36    37   ar
    27    37    38   ar
    28    38    39    1
    29    28    29   ar
    30    29    30   ar
    31    30    31   ar
    32    31    40    1
    33    40    41    1
    34    41    42    1
    35     6     7    1
    36     4     8    1
    37     8     9    1
    38    15    16   ar
    39    16    17   ar
    40    17    18   ar
    41    18    19   ar
    42    19    10   ar
    43    18    13   ar
    44     9     1    1
    45     7     4    1
    46    31    27   ar
    47    42    40    1
    48    38    32   ar
@<TRIPOS>MOLECULE
*****
 42 48 0 0 0
SMALL
GASTEIGER

@<TRIPOS>ATOM
      1 N          60.8163   89.4334    8.0244 N.pl3   1  UNL1       -0.3075
      2 C          60.6514   87.9479    8.1515 C.3     1  UNL1        0.0911
      3 C          61.2144   87.2299    9.3421 C.3     1  UNL1        0.0258
      4 C          61.9423   87.9975   10.4057 C.3     1  UNL1        0.0256
      5 C          61.9759   86.5700   10.8653 C.2     1  UNL1       -0.0304
      6 C          62.7385   86.9821   12.0895 C.2     1  UNL1       -0.0219
      7 C          62.7048   88.4096   11.6298 C.3     1  UNL1        0.0303
      8 C          62.1072   89.4830   10.2785 C.3     1  UNL1        0.0258
      9 C          61.5442   90.2009    9.0879 C.3     1  UNL1        0.0911
     10 CA         59.4604   92.6785    2.1184 C.ar    1  UNL1        0.0951
     11 C          60.9196   92.3340    2.1656 C.ar    1  UNL1        0.0242
     12 C          61.4826   91.6161    3.3562 C.ar    1  UNL1        0.0744
     13 C          60.5864   91.2427    4.4997 C.ar    1  UNL1        0.0228
     14 C          61.1495   90.5248    5.6903 C.ar    1  UNL1        0.0160
     15 C          60.2533   90.1513    6.8337 C.ar    1  UNL1        0.0479
     16 C          58.7942   90.4958    6.7865 C.ar    1  UNL1        0.0161
     17 C          58.2312   91.2137    5.5959 C.ar    1  UNL1        0.0204
     18 C          59.1273   91.5871    4.4525 C.ar    1  UNL1        0.0813
     19 N          58.5643   92.3051    3.2618 N.ar    1  UNL1       -0.2442
     20 C          62.9417   91.2716    3.4033 C.3     1  UNL1        0.4187
     21 F          64.4009   90.9272    3.4505 F       1  UNL1       -0.1659
     22 F          63.2870   92.7312    3.3820 F       1  UNL1       -0.1659
     23 F          62.5965   89.8121    3.4246 F       1  UNL1       -0.1659
     24 O          58.0090   92.6678   -0.0365 O.co2   1  UNL1       -0.5430
     25 C          58.8974   93.3965    0.9277 C.2     1  UNL1        0.0905
     26 OXT        59.2229   94.8431    0.7013 O.co2   1  UNL1       -0.5430
     27 C          63.3014   86.2642   13.2801 C.ar    1  UNL1        0.0495
     28 C          63.7085   86.8949   14.5787 C.ar    1  UNL1        0.1239
     29 N          64.2148   85.8100   15.4823 N.ar    1  UNL1       -0.0773
     30 O          64.1207   84.5088   14.7422 O.2     1  UNL1       -0.3578
     31 C          63.5562   84.7895   13.3811 C.ar    1  UNL1        0.1535
     32 C          63.6240   88.3544   14.9147 C.ar    1  UNL1        0.0451
     33 C          63.1156   88.7865   16.2581 C.ar    1  UNL1        0.0791
     34 CL         62.6916   87.7592   17.2655 Cl      1  UNL1       -0.0805
     35 C          63.0312   90.2460   16.5941 C.ar    1  UNL1        0.1103
     36 N          63.4552   91.2733   15.5867 N.ar    1  UNL1       -0.2405
     37 C          63.9637   90.8412   14.2433 C.ar    1  UNL1        0.1103
     38 C          64.0481   89.3817   13.9073 C.ar    1  UNL1        0.0791
     39 CL         64.5565   88.9495   12.5639 Cl      1  UNL1       -0.0805
     40 C          63.2927   83.7738   12.3093 C.3     1  UNL1        0.0602
     41 C          62.6321   82.5059   11.8552 C.3     1  UNL1        0.0081
     42 C          63.4968   83.2823   10.9069 C.3     1  UNL1        0.0081
@<TRIPOS>UNITY_ATOM_ATTR
24 1
charge -1
@<TRIPOS>BOND
     1    24    25   ar
     2    25    26   ar
     3    25    10    1
     4    10    11   ar
     5    11    12   ar
     6    12    20    1
     7    20    21    1
     8    20    22    1
     9    20    23    1
    10    12    13   ar
    11    13    14   ar
    12    14    15   ar
    13    15     1    1
    14     1     2    1
    15     2     3    1
    16     3     4    1
    17     4     5    1
    18     5     6    2
    19     6    27    1
    20    27    28   ar
    21    28    32    1
    22    32    33   ar
    23    33    34    1
    24    33    35   ar
    25    35    36   ar
    26    36    37   ar
    27    37    38   ar
    28    38    39    1
    29    28    29   ar
    30    29    30   ar
    31    30    31   ar
    32    31    40    1
    33    40    41    1
    34    41    42    1
    35     6     7    1
    36     4     8    1
    37     8     9    1
    38    15    16   ar
    39    16    17   ar
    40    17    18   ar
    41    18    19   ar
    42    19    10   ar
    43    18    13   ar
    44     9     1    1
    45     7     4    1
    46    31    27   ar
    47    42    40    1
    48    38    32   ar
@<TRIPOS>MOLECULE
*****
 42 48 0 0 0
SMALL
GASTEIGER

@<TRIPOS>ATOM
      1 N          60.2001   90.7397    5.2506 N.pl3   1  UNL1       -0.3075
      2 C          58.9583   91.4592    4.8144 C.3     1  UNL1        0.0911
      3 C          58.9899   92.3427    3.6027 C.3     1  UNL1        0.0258
      4 C          60.2634   92.5068    2.8272 C.3     1  UNL1        0.0256
      5 C          59.2589   93.3584    2.1089 C.2     1  UNL1       -0.0304
      6 C          60.3081   93.7564    1.1135 C.2     1  UNL1       -0.0219
      7 C          61.3125   92.9048    1.8319 C.3     1  UNL1        0.0303
      8 C          61.5052   91.7873    3.2634 C.3     1  UNL1        0.0258
      9 C          61.4735   90.9037    4.4752 C.3     1  UNL1        0.0911
     10 CA         60.8980   87.5531   11.3012 C.ar    1  UNL1        0.0951
     11 C          61.7545   88.7844   11.2931 C.ar    1  UNL1        0.0242
     12 C          61.7863   89.6680   10.0814 C.ar    1  UNL1        0.0744
     13 C          60.9614   89.3203    8.8777 C.ar    1  UNL1        0.0228
     14 C          60.9932   90.2038    7.6660 C.ar    1  UNL1        0.0160
     15 C          60.1684   89.8560    6.4624 C.ar    1  UNL1        0.0479
     16 C          59.3118   88.6247    6.4705 C.ar    1  UNL1        0.0161
     17 C          59.2801   87.7411    7.6822 C.ar    1  UNL1        0.0204
     18 C          60.1049   88.0889    8.8858 C.ar    1  UNL1        0.0813
     19 N          60.0732   87.2053   10.0976 N.ar    1  UNL1       -0.2442
     20 C          62.6428   90.8994   10.0733 C.3     1  UNL1        0.4187
     21 F          63.4993   92.1308   10.0652 F       1  UNL1       -0.1659
     22 F          63.8267   90.0732    9.6661 F       1  UNL1       -0.1659
     23 F          61.4589   91.7256   10.4805 F       1  UNL1       -0.1659
     24 O          61.7996   85.4994   12.6126 O.co2   1  UNL1       -0.5430
     25 C          60.8663   86.6695   12.5129 C.2     1  UNL1        0.0905
     26 OXT        59.9013   86.9559   13.6250 O.co2   1  UNL1       -0.5430
     27 C          60.3398   94.6400   -0.0982 C.ar    1  UNL1        0.0495
     28 C          61.4321   95.6024   -0.4592 C.ar    1  UNL1        0.1239
     29 N          61.0521   96.2735   -1.7457 N.ar    1  UNL1       -0.0773
     30 O          59.7249   95.7258   -2.1798 O.2     1  UNL1       -0.3578
     31 C          59.2847   94.7162   -1.1615 C.ar    1  UNL1        0.1535
     32 C          62.6847   95.8503    0.3281 C.ar    1  UNL1        0.0451
     33 C          62.6034   96.4727    1.6905 C.ar    1  UNL1        0.0791
     34 CL         61.2696   96.8471    2.2656 Cl      1  UNL1       -0.0805
     35 C          63.8559   96.7205    2.4777 C.ar    1  UNL1        0.1103
     36 N          65.1897   96.3460    1.9026 N.ar    1  UNL1       -0.2405
     37 C          65.2710   95.7237    0.5402 C.ar    1  UNL1        0.1103
     38 C          64.0185   95.4759   -0.2470 C.ar    1  UNL1        0.0791
     39 CL         64.0997   94.8535   -1.6095 Cl      1  UNL1       -0.0805
     40 C          58.0126   93.9223   -1.1999 C.3     1  UNL1        0.0602
     41 C          56.5191   93.8672   -1.3279 C.3     1  UNL1        0.0081
     42 C          57.3028   92.6023   -1.1385 C.3     1  UNL1        0.0081
@<TRIPOS>UNITY_ATOM_ATTR
24 1
charge -1
@<TRIPOS>BOND
     1    24    25   ar
     2    25    26   ar
     3    25    10    1
     4    10    11   ar
     5    11    12   ar
     6    12    20    1
     7    20    21    1
     8    20    22    1
     9    20    23    1
    10    12    13   ar
    11    13    14   ar
    12    14    15   ar
    13    15     1    1
    14     1     2    1
    15     2     3    1
    16     3     4    1
    17     4     5    1
    18     5     6    2
    19     6    27    1
    20    27    28   ar
    21    28    32    1
    22    32    33   ar
    23    33    34    1
    24    33    35   ar
    25    35    36   ar
    26    36    37   ar
    27    37    38   ar
    28    38    39    1
    29    28    29   ar
    30    29    30   ar
    31    30    31   ar
    32    31    40    1
    33    40    41    1
    34    41    42    1
    35     6     7    1
    36     4     8    1
    37     8     9    1
    38    15    16   ar
    39    16    17   ar
    40    17    18   ar
    41    18    19   ar
    42    19    10   ar
    43    18    13   ar
    44     9     1    1
    45     7     4    1
    46    31    27   ar
    47    42    40    1
    48    38    32   ar
@<TRIPOS>MOLECULE
*****
 42 48 0 0 0
SMALL
GASTEIGER

@<TRIPOS>ATOM
      1 N          60.4097   91.0613    5.1687 N.pl3   1  UNL1       -0.3075
      2 C          59.2475   91.9243    4.7759 C.3     1  UNL1        0.0911
      3 C          59.3541   92.8288    3.5841 C.3     1  UNL1        0.0258
      4 C          60.6229   92.8703    2.7850 C.3     1  UNL1        0.0256
      5 C          59.7058   93.8453    2.1081 C.2     1  UNL1       -0.0304
      6 C          60.7736   94.1494    1.0995 C.2     1  UNL1       -0.0219
      7 C          61.6907   93.1744    1.7765 C.3     1  UNL1        0.0303
      8 C          61.7851   92.0072    3.1778 C.3     1  UNL1        0.0258
      9 C          61.6785   91.1026    4.3698 C.3     1  UNL1        0.0911
     10 CA         60.8146   87.7088   11.1560 C.ar    1  UNL1        0.0951
     11 C          61.7528   88.8789   11.1840 C.ar    1  UNL1        0.0242
     12 C          61.8594   89.7834    9.9922 C.ar    1  UNL1        0.0744
     13 C          61.0279   89.5178    8.7723 C.ar    1  UNL1        0.0228
     14 C          61.1346   90.4223    7.5805 C.ar    1  UNL1        0.0160
     15 C          60.3031   90.1567    6.3606 C.ar    1  UNL1        0.0479
     16 C          59.3649   88.9866    6.3326 C.ar    1  UNL1        0.0161
     17 C          59.2583   88.0821    7.5244 C.ar    1  UNL1        0.0204
     18 C          60.0898   88.3477    8.7442 C.ar    1  UNL1        0.0813
     19 N          59.9831   87.4432    9.9362 N.ar    1  UNL1       -0.2442
     20 C          62.7976   90.9535   10.0202 C.3     1  UNL1        0.4187
     21 F          63.7357   92.1236   10.0482 F       1  UNL1       -0.1659
     22 F          61.6667   91.8504   10.4283 F       1  UNL1       -0.1659
     23 F          63.9285   90.0565    9.6121 F       1  UNL1       -0.1659
     24 O          61.5870   85.5933   12.4514 O.co2   1  UNL1       -0.5430
     25 C          60.7080   86.8043   12.3479 C.2     1  UNL1        0.0905
     26 OXT        59.7223   87.1108   13.4362 O.co2   1  UNL1       -0.5430
     27 C          60.8802   95.0539   -0.0924 C.ar    1  UNL1        0.0495
     28 C          59.8510   95.2153   -1.1715 C.ar    1  UNL1        0.1239
     29 N          60.3694   96.2169   -2.1604 N.ar    1  UNL1       -0.0773
     30 O          61.7189   96.6746   -1.6924 O.2     1  UNL1       -0.3578
     31 C          62.0346   95.9558   -0.4143 C.ar    1  UNL1        0.1535
     32 C          58.5344   94.5004   -1.2484 C.ar    1  UNL1        0.0451
     33 C          58.4982   93.0044   -1.3516 C.ar    1  UNL1        0.0791
     34 CL         59.7784   92.2232   -1.3781 Cl      1  UNL1       -0.0805
     35 C          57.1817   92.2897   -1.4285 C.ar    1  UNL1        0.1103
     36 N          55.9014   93.0709   -1.4020 N.ar    1  UNL1       -0.2405
     37 C          55.9377   94.5669   -1.2987 C.ar    1  UNL1        0.1103
     38 C          57.2542   95.2816   -1.2219 C.ar    1  UNL1        0.0791
     39 CL         57.2905   96.7777   -1.1186 Cl      1  UNL1       -0.0805
     40 C          63.2852   96.1116    0.3991 C.3     1  UNL1        0.0602
     41 C          64.7823   96.1498    0.4856 C.3     1  UNL1        0.0081
     42 C          63.9544   96.3433    1.7214 C.3     1  UNL1        0.0081
@<TRIPOS>UNITY_ATOM_ATTR
24 1
charge -1
@<TRIPOS>BOND
     1    24    25   ar
     2    25    26   ar
     3    25    10    1
     4    10    11   ar
     5    11    12   ar
     6    12    20    1
     7    20    21    1
     8    20    22    1
     9    20    23    1
    10    12    13   ar
    11    13    14   ar
    12    14    15   ar
    13    15     1    1
    14     1     2    1
    15     2     3    1
    16     3     4    1
    17     4     5    1
    18     5     6    2
    19     6    27    1
    20    27    28   ar
    21    28    32    1
    22    32    33   ar
    23    33    34    1
    24    33    35   ar
    25    35    36   ar
    26    36    37   ar
    27    37    38   ar
    28    38    39    1
    29    28    29   ar
    30    29    30   ar
    31    30    31   ar
    32    31    40    1
    33    40    41    1
    34    41    42    1
    35     6     7    1
    36     4     8    1
    37     8     9    1
    38    15    16   ar
    39    16    17   ar
    40    17    18   ar
    41    18    19   ar
    42    19    10   ar
    43    18    13   ar
    44     9     1    1
    45     7     4    1
    46    31    27   ar
    47    42    40    1
    48    38    32   ar
