@<TRIPOS>MOLECULE
*****
 43 48 0 0 0
SMALL
GASTEIGER

@<TRIPOS>ATOM
      1 C          56.5827   91.7877    4.7984 C.3     1  UNL1        0.0312
      2 C          57.9959   91.3519    5.0489 C.2     1  UNL1        0.0136
      3 C          58.3018   90.4104    6.1759 C.2     1  UNL1        0.0107
      4 C          59.7150   89.9746    6.4264 C.2     1  UNL1        0.0509
      5 C          60.8225   90.4803    5.5501 C.2     1  UNL1        0.0613
      6 C          60.5165   91.4218    4.4231 C.2     1  UNL1        0.2246
      7 N          61.3934   92.0817    3.4006 N.2     1  UNL1       -0.0378
      8 C          60.5220   92.9254    2.5180 C.2     1  UNL1        0.3605
      9 N          59.1067   92.7869    2.9951 N.2     1  UNL1       -0.0547
     10 C          59.1033   91.8576    4.1726 C.3     1  UNL1        0.2976
     11 C          60.9847   93.7609    1.3614 C.3     1  UNL1        0.2246
     12 C          60.0392   94.0812    0.2418 C.2     1  UNL1        0.0436
     13 C          60.5020   94.9168   -0.9148 C.2     1  UNL1        0.0288
     14 C          61.9102   95.4320   -0.9519 C.2     1  UNL1        0.0896
     15 N          62.8558   95.1117    0.1677 N.am    1  UNL1       -0.1770
     16 C          62.3929   94.2761    1.3243 C.2     1  UNL1        0.2627
     17 O          63.3385   93.9558    2.4438 O.2     1  UNL1       -0.2719
     18 N          58.6310   93.5660    0.2788 N.pl3   1  UNL1       -0.3329
     19 H          58.3141   93.0551    1.0585 H       1  UNL1        0.1466
     20 C          57.7055   93.8292   -0.8719 C.3     1  UNL1        0.1211
     21 C          57.2534   92.6963   -1.7450 C.3     1  UNL1        0.1522
     22 O          56.7181   91.4395   -1.1254 O.3     1  UNL1       -0.3783
     23 H          56.7325   91.5237   -0.1592 H       1  UNL1        0.2109
     24 C          57.3366   92.8202   -3.2375 C.ar    1  UNL1        0.0067
     25 C          58.3550   93.7294   -3.8590 C.ar    1  UNL1       -0.0018
     26 C          58.4382   93.8533   -5.3515 C.ar    1  UNL1        0.0006
     27 C          57.5031   93.0681   -6.2227 C.ar    1  UNL1        0.0114
     28 C          56.4847   92.1589   -5.6012 C.ar    1  UNL1        0.0574
     29 CL         55.5495   91.3737   -6.4723 Cl      1  UNL1       -0.0823
     30 C          56.4015   92.0350   -4.1086 C.ar    1  UNL1        0.0095
     31 N          60.0209   89.0331    7.5535 N.pl3   1  UNL1       -0.3073
     32 C          60.6146   89.5563    8.8277 C.3     1  UNL1        0.0925
     33 C          60.9205   88.6149    9.9547 C.3     1  UNL1        0.0410
     34 C          60.6327   87.1501    9.8074 C.3     1  UNL1        0.0750
     35 C          60.0390   86.6269    8.5331 C.3     1  UNL1        0.0410
     36 C          59.7331   87.5683    7.4062 C.3     1  UNL1        0.0925
     37 N          60.9386   86.2086   10.9343 N.am    1  UNL1       -0.3059
     38 C          62.1051   85.2710   10.8326 C.2     1  UNL1        0.2219
     39 O          62.9657   85.2751    9.6041 O.2     1  UNL1       -0.2751
     40 H          60.3737   86.2060   11.7406 H       1  UNL1        0.1494
     41 C          62.4110   84.3295   11.9595 C.3     1  UNL1        0.0765
     42 C          62.6145   82.9322   12.4659 C.3     1  UNL1        0.0096
     43 C          62.7375   84.0957   13.4047 C.3     1  UNL1        0.0096
@<TRIPOS>BOND
     1     1     2    1
     2     2     3    2
     3     3     4    1
     4     4    31    1
     5    31    32    1
     6    32    33    1
     7    33    34    1
     8    34    37    1
     9    37    38   am
    10    38    39    2
    11    38    41    1
    12    41    42    1
    13    42    43    1
    14    34    35    1
    15    35    36    1
    16     4     5    2
    17     5     6    1
    18     6     7    2
    19     7     8    1
    20     8    11    1
    21    11    12    1
    22    12    18    1
    23    18    20    1
    24    20    21    1
    25    21    22    1
    26    21    24    1
    27    24    25   ar
    28    25    26   ar
    29    26    27   ar
    30    27    28   ar
    31    28    29    1
    32    28    30   ar
    33    12    13    2
    34    13    14    1
    35    14    15    2
    36    15    16    1
    37    16    17    2
    38     8     9    2
    39     9    10    1
    40    10     2    1
    41    36    31    1
    42    10     6    1
    43    43    41    1
    44    16    11    1
    45    30    24   ar
    46    37    40    1
    47    18    19    1
    48    22    23    1
@<TRIPOS>MOLECULE
*****
 43 48 0 0 0
SMALL
GASTEIGER

@<TRIPOS>ATOM
      1 C          56.3288   91.2686    5.1120 C.3     1  UNL1        0.0312
      2 C          57.7956   91.3867    4.8212 C.2     1  UNL1        0.0136
      3 C          58.2675   92.2324    3.6758 C.2     1  UNL1        0.0107
      4 C          59.7342   92.3505    3.3850 C.2     1  UNL1        0.0509
      5 C          60.7292   91.6228    4.2397 C.2     1  UNL1        0.0613
      6 C          60.2574   90.7770    5.3851 C.2     1  UNL1        0.2246
      7 N          60.9979   89.9495    6.3935 N.2     1  UNL1       -0.0378
      8 C          59.9888   89.3201    7.3075 C.2     1  UNL1        0.3605
      9 N          58.6246   89.7585    6.8640 N.2     1  UNL1       -0.0547
     10 C          58.7906   90.6590    5.6759 C.3     1  UNL1        0.2976
     11 C          60.2908   88.4116    8.4622 C.3     1  UNL1        0.2246
     12 C          60.9351   88.9612    9.7003 C.2     1  UNL1        0.0436
     13 C          61.2370   88.0526   10.8551 C.2     1  UNL1        0.0288
     14 C          60.8948   86.5946   10.7718 C.2     1  UNL1        0.0896
     15 N          60.2506   86.0450    9.5337 N.am    1  UNL1       -0.1770
     16 C          59.9486   86.9536    8.3789 C.2     1  UNL1        0.2627
     17 O          59.3044   86.4040    7.1408 O.2     1  UNL1       -0.2719
     18 N          61.2773   90.4192    9.7837 N.pl3   1  UNL1       -0.3329
     19 H          60.5887   91.0979    9.5982 H       1  UNL1        0.1466
     20 C          62.6687   90.8433   10.1499 C.3     1  UNL1        0.1211
     21 C          63.0529   90.9902   11.5924 C.3     1  UNL1        0.1522
     22 O          62.0952   90.5749   12.6696 O.3     1  UNL1       -0.3783
     23 H          61.2812   90.2358   12.2654 H       1  UNL1        0.2109
     24 C          64.3947   91.5524   11.9577 C.ar    1  UNL1        0.0067
     25 C          65.1686   92.3572   10.9561 C.ar    1  UNL1       -0.0018
     26 C          66.5104   92.9194   11.3214 C.ar    1  UNL1        0.0006
     27 C          67.0784   92.6768   12.6883 C.ar    1  UNL1        0.0114
     28 C          66.3044   91.8720   13.6900 C.ar    1  UNL1        0.0574
     29 CL         66.8723   91.6295   15.0570 Cl      1  UNL1       -0.0823
     30 C          64.9626   91.3098   13.3247 C.ar    1  UNL1        0.0095
     31 N          60.2060   93.1963    2.2395 N.pl3   1  UNL1       -0.3073
     32 C          59.2758   93.5092    1.1051 C.3     1  UNL1        0.0925
     33 C          59.7476   94.3549   -0.0403 C.3     1  UNL1        0.0410
     34 C          61.1497   94.8879   -0.0514 C.3     1  UNL1        0.0750
     35 C          62.0799   94.5751    1.0830 C.3     1  UNL1        0.0410
     36 C          61.6081   93.7293    2.2284 C.3     1  UNL1        0.0925
     37 N          61.6215   95.7336   -1.1968 N.am    1  UNL1       -0.3059
     38 C          62.3892   95.1090   -2.3239 C.2     1  UNL1        0.2219
     39 O          62.6849   93.6385   -2.3056 O.2     1  UNL1       -0.2751
     40 H          61.4274   96.6987   -1.2087 H       1  UNL1        0.1494
     41 C          62.8612   95.9547   -3.4694 C.3     1  UNL1        0.0765
     42 C          62.5623   96.7592   -4.6996 C.3     1  UNL1        0.0096
     43 C          63.9773   96.6149   -4.2232 C.3     1  UNL1        0.0096
@<TRIPOS>BOND
     1     1     2    1
     2     2     3    2
     3     3     4    1
     4     4    31    1
     5    31    32    1
     6    32    33    1
     7    33    34    1
     8    34    37    1
     9    37    38   am
    10    38    39    2
    11    38    41    1
    12    41    42    1
    13    42    43    1
    14    34    35    1
    15    35    36    1
    16     4     5    2
    17     5     6    1
    18     6     7    2
    19     7     8    1
    20     8    11    1
    21    11    12    1
    22    12    18    1
    23    18    20    1
    24    20    21    1
    25    21    22    1
    26    21    24    1
    27    24    25   ar
    28    25    26   ar
    29    26    27   ar
    30    27    28   ar
    31    28    29    1
    32    28    30   ar
    33    12    13    2
    34    13    14    1
    35    14    15    2
    36    15    16    1
    37    16    17    2
    38     8     9    2
    39     9    10    1
    40    10     2    1
    41    36    31    1
    42    10     6    1
    43    43    41    1
    44    16    11    1
    45    30    24   ar
    46    37    40    1
    47    18    19    1
    48    22    23    1
@<TRIPOS>MOLECULE
*****
 43 48 0 0 0
SMALL
GASTEIGER

@<TRIPOS>ATOM
      1 C          58.7181   86.5994    8.5298 C.3     1  UNL1        0.0312
      2 C          59.5302   87.8391    8.2980 C.2     1  UNL1        0.0136
      3 C          59.2778   88.6852    7.0854 C.2     1  UNL1        0.0107
      4 C          60.0899   89.9248    6.8536 C.2     1  UNL1        0.0509
      5 C          61.1545   90.3184    7.8344 C.2     1  UNL1        0.0613
      6 C          61.4069   89.4723    9.0469 C.2     1  UNL1        0.2246
      7 N          62.3810   89.6069   10.1796 N.2     1  UNL1       -0.0378
      8 C          62.1709   88.4504   11.1115 C.2     1  UNL1        0.3605
      9 N          61.0669   87.6011   10.5548 N.2     1  UNL1       -0.0547
     10 C          60.5948   88.2326    9.2788 C.3     1  UNL1        0.2976
     11 C          62.9312   88.1891   12.3779 C.3     1  UNL1        0.2246
     12 C          63.4416   89.3375   13.1968 C.2     1  UNL1        0.0436
     13 C          64.2020   89.0761   14.4631 C.2     1  UNL1        0.0288
     14 C          64.4519   87.6664   14.9106 C.2     1  UNL1        0.0896
     15 N          63.9415   86.5180   14.0917 N.am    1  UNL1       -0.1770
     16 C          63.1811   86.7794   12.8253 C.2     1  UNL1        0.2627
     17 O          62.6707   85.6310   12.0064 O.2     1  UNL1       -0.2719
     18 N          63.1918   90.7473   12.7494 N.pl3   1  UNL1       -0.3329
     19 H          62.4123   91.2415   13.0919 H       1  UNL1        0.1466
     20 C          64.1294   91.4039   11.7801 C.3     1  UNL1        0.1211
     21 C          65.1717   92.3616   12.2766 C.3     1  UNL1        0.1522
     22 O          65.3361   92.5939   13.7494 O.3     1  UNL1       -0.3783
     23 H          64.6956   92.0515   14.2357 H       1  UNL1        0.2109
     24 C          66.0496   93.0870   11.3003 C.ar    1  UNL1        0.0067
     25 C          65.9550   94.5784   11.1711 C.ar    1  UNL1       -0.0018
     26 C          66.8329   95.3039   10.1948 C.ar    1  UNL1        0.0006
     27 C          67.8053   94.5379    9.3477 C.ar    1  UNL1        0.0114
     28 C          67.8999   93.0465    9.4770 C.ar    1  UNL1        0.0574
     29 CL         68.8723   92.2805    8.6298 Cl      1  UNL1       -0.0823
     30 C          67.0220   92.3210   10.4532 C.ar    1  UNL1        0.0095
     31 N          59.8374   90.7709    5.6409 N.pl3   1  UNL1       -0.3073
     32 C          58.4337   91.1423    5.2646 C.3     1  UNL1        0.0925
     33 C          58.1813   91.9884    4.0520 C.3     1  UNL1        0.0410
     34 C          59.3326   92.4631    3.2158 C.3     1  UNL1        0.0750
     35 C          60.7363   92.0917    3.5922 C.3     1  UNL1        0.0410
     36 C          60.9887   91.2456    4.8047 C.3     1  UNL1        0.0925
     37 N          59.0802   93.3092    2.0032 N.am    1  UNL1       -0.3059
     38 C          59.6246   92.8901    0.6697 C.2     1  UNL1        0.2219
     39 O          60.4213   91.6249    0.5490 O.2     1  UNL1       -0.2751
     40 H          58.5573   94.1396    2.0825 H       1  UNL1        0.1494
     41 C          59.3723   93.7361   -0.5429 C.3     1  UNL1        0.0765
     42 C          58.9820   95.0504   -1.1516 C.3     1  UNL1        0.0096
     43 C          59.3256   93.8874   -2.0346 C.3     1  UNL1        0.0096
@<TRIPOS>BOND
     1     1     2    1
     2     2     3    2
     3     3     4    1
     4     4    31    1
     5    31    32    1
     6    32    33    1
     7    33    34    1
     8    34    37    1
     9    37    38   am
    10    38    39    2
    11    38    41    1
    12    41    42    1
    13    42    43    1
    14    34    35    1
    15    35    36    1
    16     4     5    2
    17     5     6    1
    18     6     7    2
    19     7     8    1
    20     8    11    1
    21    11    12    1
    22    12    18    1
    23    18    20    1
    24    20    21    1
    25    21    22    1
    26    21    24    1
    27    24    25   ar
    28    25    26   ar
    29    26    27   ar
    30    27    28   ar
    31    28    29    1
    32    28    30   ar
    33    12    13    2
    34    13    14    1
    35    14    15    2
    36    15    16    1
    37    16    17    2
    38     8     9    2
    39     9    10    1
    40    10     2    1
    41    36    31    1
    42    10     6    1
    43    43    41    1
    44    16    11    1
    45    30    24   ar
    46    37    40    1
    47    18    19    1
    48    22    23    1
@<TRIPOS>MOLECULE
*****
 43 48 0 0 0
SMALL
GASTEIGER

@<TRIPOS>ATOM
      1 C          58.3863   86.0325    8.1833 C.3     1  UNL1        0.0312
      2 C          59.3061   87.2149    8.1061 C.2     1  UNL1        0.0136
      3 C          59.1193   88.2413    7.0283 C.2     1  UNL1        0.0107
      4 C          60.0390   89.4236    6.9510 C.2     1  UNL1        0.0509
      5 C          61.1456   89.5797    7.9516 C.2     1  UNL1        0.0613
      6 C          61.3324   88.5534    9.0294 C.2     1  UNL1        0.2246
      7 N          62.3268   88.4409   10.1468 N.2     1  UNL1       -0.0378
      8 C          62.0216   87.1889   10.9146 C.2     1  UNL1        0.3605
      9 N          60.8386   86.5277   10.2718 N.2     1  UNL1       -0.0547
     10 C          60.4126   87.3710    9.1066 C.3     1  UNL1        0.2976
     11 C          62.7683   86.6864   12.1146 C.3     1  UNL1        0.2246
     12 C          63.4272   87.6576   13.0487 C.2     1  UNL1        0.0436
     13 C          64.1739   87.1550   14.2487 C.2     1  UNL1        0.0288
     14 C          64.2617   85.6813   14.5145 C.2     1  UNL1        0.0896
     15 N          63.6028   84.7102   13.5803 N.am    1  UNL1       -0.1770
     16 C          62.8561   85.2128   12.3803 C.2     1  UNL1        0.2627
     17 O          62.1972   84.2417   11.4461 O.2     1  UNL1       -0.2719
     18 N          63.3395   89.1312   12.7830 N.pl3   1  UNL1       -0.3329
     19 H          63.5908   89.4881   11.9006 H       1  UNL1        0.1466
     20 C          62.8687   90.0611   13.8618 C.3     1  UNL1        0.1211
     21 C          63.8417   90.9842   14.5335 C.3     1  UNL1        0.1522
     22 O          63.5985   91.4329   15.9440 O.3     1  UNL1       -0.3783
     23 H          62.7755   91.0377   16.2716 H       1  UNL1        0.2109
     24 C          65.0578   91.4586   13.7946 C.ar    1  UNL1        0.0067
     25 C          66.4167   91.3072   14.4114 C.ar    1  UNL1       -0.0018
     26 C          67.6329   91.7816   13.6726 C.ar    1  UNL1        0.0006
     27 C          67.4902   92.4075   12.3169 C.ar    1  UNL1        0.0114
     28 C          66.1313   92.5590   11.7001 C.ar    1  UNL1        0.0574
     29 CL         65.9886   93.1849   10.3445 Cl      1  UNL1       -0.0823
     30 C          64.9152   92.0846   12.4390 C.ar    1  UNL1        0.0095
     31 N          59.8522   90.4501    5.8732 N.pl3   1  UNL1       -0.3073
     32 C          61.0340   90.9363    5.0877 C.3     1  UNL1        0.0925
     33 C          60.8472   91.9627    4.0099 C.3     1  UNL1        0.0410
     34 C          59.4787   92.5028    3.7176 C.3     1  UNL1        0.0750
     35 C          58.2969   92.0165    4.5031 C.3     1  UNL1        0.0410
     36 C          58.4837   90.9901    5.5809 C.3     1  UNL1        0.0925
     37 N          59.2918   93.5291    2.6398 N.am    1  UNL1       -0.3059
     38 C          59.6904   93.2154    1.2281 C.2     1  UNL1        0.2219
     39 O          60.2757   91.8753    0.8943 O.2     1  UNL1       -0.2751
     40 H          58.9077   94.4087    2.8589 H       1  UNL1        0.1494
     41 C          59.5035   94.2417    0.1502 C.3     1  UNL1        0.0765
     42 C          59.9843   94.9119   -1.1027 C.3     1  UNL1        0.0096
     43 C          58.6993   95.3490   -0.4638 C.3     1  UNL1        0.0096
@<TRIPOS>BOND
     1     1     2    1
     2     2     3    2
     3     3     4    1
     4     4    31    1
     5    31    32    1
     6    32    33    1
     7    33    34    1
     8    34    37    1
     9    37    38   am
    10    38    39    2
    11    38    41    1
    12    41    42    1
    13    42    43    1
    14    34    35    1
    15    35    36    1
    16     4     5    2
    17     5     6    1
    18     6     7    2
    19     7     8    1
    20     8    11    1
    21    11    12    1
    22    12    18    1
    23    18    20    1
    24    20    21    1
    25    21    22    1
    26    21    24    1
    27    24    25   ar
    28    25    26   ar
    29    26    27   ar
    30    27    28   ar
    31    28    29    1
    32    28    30   ar
    33    12    13    2
    34    13    14    1
    35    14    15    2
    36    15    16    1
    37    16    17    2
    38     8     9    2
    39     9    10    1
    40    10     2    1
    41    36    31    1
    42    10     6    1
    43    43    41    1
    44    16    11    1
    45    30    24   ar
    46    37    40    1
    47    18    19    1
    48    22    23    1
