@<TRIPOS>MOLECULE
*****
 33 36 0 0 0
SMALL
GASTEIGER

@<TRIPOS>ATOM
      1 C          59.7993   90.3364    6.0849 C.ar    1  UNL1       -0.0223
      2 C          60.8734   90.8278    5.1604 C.ar    1  UNL1       -0.0030
      3 C          60.5096   91.6362    3.9504 C.ar    1  UNL1        0.0144
      4 C          59.0715   91.9531    3.6648 C.ar    1  UNL1        0.0516
      5 C          57.9973   91.4617    4.5893 C.ar    1  UNL1        0.0144
      6 C          58.3611   90.6533    5.7993 C.ar    1  UNL1       -0.0030
      7 N          58.7077   92.7615    2.4548 N.am    1  UNL1       -0.2681
      8 C          59.7554   93.1002    1.4363 C.2     1  UNL1        0.3082
      9 O          61.1671   92.6306    1.6278 O.2     1  UNL1       -0.2522
     10 N          59.3916   93.9085    0.2262 N.am    1  UNL1       -0.2558
     11 C          60.3264   94.3226   -0.8713 C.3     1  UNL1        0.1217
     12 C          59.5416   95.1147   -1.8746 C.ar    1  UNL1       -0.0046
     13 C          59.9365   95.7770   -3.1612 C.ar    1  UNL1       -0.0029
     14 C          58.9114   96.5148   -3.9704 C.ar    1  UNL1       -0.0003
     15 C          57.4914   96.5903   -3.4929 C.ar    1  UNL1       -0.0003
     16 C          57.0965   95.9281   -2.2063 C.ar    1  UNL1       -0.0029
     17 C          58.1216   95.1903   -1.3971 C.ar    1  UNL1       -0.0046
     18 C          58.0289   94.4448   -0.0987 C.3     1  UNL1        0.1217
     19 H          57.7811   93.0697    2.3291 H       1  UNL1        0.1564
     20 C          61.2547   87.1030   10.9250 C.2     1  UNL1        0.2280
     21 O          61.6090   87.7928   12.2090 O.2     1  UNL1       -0.2748
     22 N          60.8909   87.9114    9.7150 N.am    1  UNL1       -0.2795
     23 C          60.5365   87.2215    8.4309 C.3     1  UNL1        0.0937
     24 C          60.1727   88.0299    7.2209 C.3     1  UNL1        0.0259
     25 C          60.1631   89.5281    7.2949 C.3     1  UNL1        0.0257
     26 C          60.5174   90.2178    8.5789 C.3     1  UNL1        0.0259
     27 C          60.8813   89.4095    9.7889 C.3     1  UNL1        0.0937
     28 C          61.2643   85.6048   10.8510 C.3     1  UNL1        0.1121
     29 C          62.2978   84.6931   12.4636 C.3     1  UNL1        0.0298
     30 C          62.5555   84.8550   10.9948 C.3     1  UNL1        0.0971
     31 C          62.8131   85.0169    9.5260 C.3     1  UNL1        0.0298
     32 O          63.8466   84.1053   11.1387 O.3     1  UNL1       -0.3862
     33 H          63.8031   83.5335   11.9211 H       1  UNL1        0.2102
@<TRIPOS>BOND
     1    29    30    1
     2    30    31    1
     3    30    32    1
     4    30    28    1
     5    28    20    1
     6    20    21    2
     7    20    22   am
     8    22    23    1
     9    23    24    1
    10    24    25    1
    11    25     1    1
    12     1     2   ar
    13     2     3   ar
    14     3     4   ar
    15     4     7    1
    16     7     8   am
    17     8     9    2
    18     8    10   am
    19    10    11    1
    20    11    12    1
    21    12    13   ar
    22    13    14   ar
    23    14    15   ar
    24    15    16   ar
    25    16    17   ar
    26    17    18    1
    27     4     5   ar
    28     5     6   ar
    29    25    26    1
    30    26    27    1
    31    27    22    1
    32     6     1   ar
    33    18    10    1
    34    17    12   ar
    35    32    33    1
    36     7    19    1
@<TRIPOS>MOLECULE
*****
 33 36 0 0 0
SMALL
GASTEIGER

@<TRIPOS>ATOM
      1 C          72.2499   76.5668   13.7510 C.ar    1  UNL1       -0.0223
      2 C          71.0339   76.6236   12.8747 C.ar    1  UNL1       -0.0030
      3 C          70.9834   77.5836   11.7233 C.ar    1  UNL1        0.0144
      4 C          72.1489   78.4868   11.4482 C.ar    1  UNL1        0.0516
      5 C          73.3650   78.4300   12.3245 C.ar    1  UNL1        0.0144
      6 C          73.4155   77.4700   13.4759 C.ar    1  UNL1       -0.0030
      7 N          72.0984   79.4468   10.2967 N.am    1  UNL1       -0.2681
      8 C          72.8400   79.1383    9.0299 C.2     1  UNL1        0.3082
      9 O          73.6321   77.8698    8.9146 O.2     1  UNL1       -0.2522
     10 N          72.7895   80.0984    7.8785 N.am    1  UNL1       -0.2558
     11 C          73.4762   79.9260    6.5561 C.3     1  UNL1        0.1217
     12 C          73.1545   81.1204    5.7076 C.ar    1  UNL1       -0.0046
     13 C          73.5535   81.4965    4.3114 C.ar    1  UNL1       -0.0029
     14 C          73.0670   82.7832    3.7133 C.ar    1  UNL1       -0.0003
     15 C          72.1814   83.6937    4.5113 C.ar    1  UNL1       -0.0003
     16 C          71.7824   83.3176    5.9074 C.ar    1  UNL1       -0.0029
     17 C          72.2689   82.0309    6.5056 C.ar    1  UNL1       -0.0046
     18 C          72.0434   81.3992    7.8472 C.3     1  UNL1        0.1217
     19 H          71.5784   80.2794   10.3724 H       1  UNL1        0.1564
     20 C          72.4520   72.7267   18.3568 C.2     1  UNL1        0.2280
     21 O          73.5530   72.8285   19.3704 O.2     1  UNL1       -0.2748
     22 N          72.4015   73.6868   17.2054 N.am    1  UNL1       -0.2795
     23 C          71.3004   73.5849   16.1918 C.3     1  UNL1        0.0937
     24 C          71.2499   74.5449   15.0403 C.3     1  UNL1        0.0259
     25 C          72.3004   75.6068   14.9025 C.3     1  UNL1        0.0257
     26 C          73.4014   75.7086   15.9161 C.3     1  UNL1        0.0259
     27 C          73.4519   74.7486   17.0675 C.3     1  UNL1        0.0937
     28 C          71.4014   71.6649   18.4946 C.3     1  UNL1        0.1121
     29 C          72.8245   70.8555   17.1457 C.3     1  UNL1        0.0298
     30 C          71.5124   70.3934   17.7067 C.3     1  UNL1        0.0971
     31 C          70.2003   69.9312   18.2677 C.3     1  UNL1        0.0298
     32 O          71.6234   69.1218   16.9188 O.3     1  UNL1       -0.3862
     33 H          72.5563   68.9443   16.7210 H       1  UNL1        0.2102
@<TRIPOS>BOND
     1    29    30    1
     2    30    31    1
     3    30    32    1
     4    30    28    1
     5    28    20    1
     6    20    21    2
     7    20    22   am
     8    22    23    1
     9    23    24    1
    10    24    25    1
    11    25     1    1
    12     1     2   ar
    13     2     3   ar
    14     3     4   ar
    15     4     7    1
    16     7     8   am
    17     8     9    2
    18     8    10   am
    19    10    11    1
    20    11    12    1
    21    12    13   ar
    22    13    14   ar
    23    14    15   ar
    24    15    16   ar
    25    16    17   ar
    26    17    18    1
    27     4     5   ar
    28     5     6   ar
    29    25    26    1
    30    26    27    1
    31    27    22    1
    32     6     1   ar
    33    18    10    1
    34    17    12   ar
    35    32    33    1
    36     7    19    1
@<TRIPOS>MOLECULE
*****
 33 36 0 0 0
SMALL
GASTEIGER

@<TRIPOS>ATOM
      1 C          72.3328   76.1572   12.9797 C.ar    1  UNL1       -0.0223
      2 C          73.6155   76.6988   12.4218 C.ar    1  UNL1       -0.0030
      3 C          73.5834   77.7426   11.3450 C.ar    1  UNL1        0.0144
      4 C          72.2687   78.2447   10.8260 C.ar    1  UNL1        0.0516
      5 C          70.9859   77.7030   11.3839 C.ar    1  UNL1        0.0144
      6 C          71.0179   76.6593   12.4607 C.ar    1  UNL1       -0.0030
      7 N          72.2367   79.2884    9.7492 N.am    1  UNL1       -0.2681
      8 C          72.9165   79.0331    8.4368 C.2     1  UNL1        0.3082
      9 O          73.6284   77.7340    8.2011 O.2     1  UNL1       -0.2522
     10 N          72.8845   80.0768    7.3599 N.am    1  UNL1       -0.2558
     11 C          73.5157   79.9643    6.0039 C.3     1  UNL1        0.1217
     12 C          73.2370   81.2343    5.2559 C.ar    1  UNL1       -0.0046
     13 C          73.6110   81.6895    3.8765 C.ar    1  UNL1       -0.0029
     14 C          73.1815   83.0421    3.3909 C.ar    1  UNL1       -0.0003
     15 C          72.3780   83.9396    4.2847 C.ar    1  UNL1       -0.0003
     16 C          72.0040   83.4844    5.6641 C.ar    1  UNL1       -0.0029
     17 C          72.4335   82.1318    6.1498 C.ar    1  UNL1       -0.0046
     18 C          72.2156   81.4164    7.4501 C.3     1  UNL1        0.1217
     19 H          71.7695   80.1411    9.9039 H       1  UNL1        0.1564
     20 C          72.4608   71.9821   17.2870 C.2     1  UNL1        0.2280
     21 O          72.0291   70.5780   16.9836 O.2     1  UNL1       -0.2748
     22 N          72.4288   73.0259   16.2101 N.am    1  UNL1       -0.2795
     23 C          72.8606   74.4300   16.5136 C.3     1  UNL1        0.0937
     24 C          72.8285   75.4738   15.4368 C.3     1  UNL1        0.0259
     25 C          72.3648   75.1134   14.0565 C.3     1  UNL1        0.0257
     26 C          71.9331   73.7093   13.7531 C.3     1  UNL1        0.0259
     27 C          71.9651   72.6655   14.8299 C.3     1  UNL1        0.0937
     28 C          72.9246   72.3425   18.6672 C.3     1  UNL1        0.1121
     29 C          70.8714   72.5234   19.1690 C.3     1  UNL1        0.0298
     30 C          72.1172   73.2876   19.5068 C.3     1  UNL1        0.0971
     31 C          73.3629   74.0518   19.8446 C.3     1  UNL1        0.0298
     32 O          71.3098   74.2327   20.3464 O.3     1  UNL1       -0.3862
     33 H          70.4953   73.7927   20.6362 H       1  UNL1        0.2102
@<TRIPOS>BOND
     1    29    30    1
     2    30    31    1
     3    30    32    1
     4    30    28    1
     5    28    20    1
     6    20    21    2
     7    20    22   am
     8    22    23    1
     9    23    24    1
    10    24    25    1
    11    25     1    1
    12     1     2   ar
    13     2     3   ar
    14     3     4   ar
    15     4     7    1
    16     7     8   am
    17     8     9    2
    18     8    10   am
    19    10    11    1
    20    11    12    1
    21    12    13   ar
    22    13    14   ar
    23    14    15   ar
    24    15    16   ar
    25    16    17   ar
    26    17    18    1
    27     4     5   ar
    28     5     6   ar
    29    25    26    1
    30    26    27    1
    31    27    22    1
    32     6     1   ar
    33    18    10    1
    34    17    12   ar
    35    32    33    1
    36     7    19    1
@<TRIPOS>MOLECULE
*****
 33 36 0 0 0
SMALL
GASTEIGER

@<TRIPOS>ATOM
      1 C          64.2707   90.1286   12.5551 C.ar    1  UNL1       -0.0223
      2 C          64.5930   89.3980   13.8248 C.ar    1  UNL1       -0.0030
      3 C          64.0452   88.0212   14.0577 C.ar    1  UNL1        0.0144
      4 C          63.1750   87.3750   13.0209 C.ar    1  UNL1        0.0516
      5 C          62.8526   88.1056   11.7510 C.ar    1  UNL1        0.0144
      6 C          63.4005   89.4824   11.5181 C.ar    1  UNL1       -0.0030
      7 N          62.6271   85.9982   13.2537 N.am    1  UNL1       -0.2681
      8 C          63.5153   84.8003   13.0921 C.2     1  UNL1        0.3082
      9 O          64.9513   84.9792   12.6976 O.2     1  UNL1       -0.2522
     10 N          62.9674   83.4235   13.3250 N.am    1  UNL1       -0.2558
     11 C          63.7310   82.1382   13.2021 C.3     1  UNL1        0.1217
     12 C          62.7953   81.0106   13.5228 C.ar    1  UNL1       -0.0046
     13 C          62.9918   79.5241   13.5639 C.ar    1  UNL1       -0.0029
     14 C          61.8464   78.6259   13.9261 C.ar    1  UNL1       -0.0003
     15 C          60.5045   79.2142   14.2472 C.ar    1  UNL1       -0.0003
     16 C          60.3080   80.7007   14.2061 C.ar    1  UNL1       -0.0029
     17 C          61.4534   81.5989   13.8439 C.ar    1  UNL1       -0.0046
     18 C          61.5598   83.0901   13.7216 C.3     1  UNL1        0.1217
     19 H          61.6846   85.8807   13.5127 H       1  UNL1        0.1564
     20 C          66.4622   95.6358   11.6236 C.2     1  UNL1        0.2280
     21 O          66.7926   96.5188   12.7902 O.2     1  UNL1       -0.2748
     22 N          65.9143   94.2590   11.8564 N.am    1  UNL1       -0.2795
     23 C          65.5838   93.3761   10.6897 C.3     1  UNL1        0.0937
     24 C          65.0360   91.9993   10.9226 C.3     1  UNL1        0.0259
     25 C          64.8186   91.5054   12.3222 C.3     1  UNL1        0.0257
     26 C          65.1490   92.3883   13.4889 C.3     1  UNL1        0.0259
     27 C          65.6969   93.7652   13.2560 C.3     1  UNL1        0.0937
     28 C          66.6796   96.1297   10.2239 C.3     1  UNL1        0.1121
     29 C          66.2888   96.0992    8.1391 C.3     1  UNL1        0.0298
     30 C          65.5035   96.4771    9.3600 C.3     1  UNL1        0.0971
     31 C          64.7183   96.8549   10.5810 C.3     1  UNL1        0.0298
     32 O          64.3275   96.8244    8.4962 O.3     1  UNL1       -0.3862
     33 H          64.3871   96.3391    7.6585 H       1  UNL1        0.2102
@<TRIPOS>BOND
     1    29    30    1
     2    30    31    1
     3    30    32    1
     4    30    28    1
     5    28    20    1
     6    20    21    2
     7    20    22   am
     8    22    23    1
     9    23    24    1
    10    24    25    1
    11    25     1    1
    12     1     2   ar
    13     2     3   ar
    14     3     4   ar
    15     4     7    1
    16     7     8   am
    17     8     9    2
    18     8    10   am
    19    10    11    1
    20    11    12    1
    21    12    13   ar
    22    13    14   ar
    23    14    15   ar
    24    15    16   ar
    25    16    17   ar
    26    17    18    1
    27     4     5   ar
    28     5     6   ar
    29    25    26    1
    30    26    27    1
    31    27    22    1
    32     6     1   ar
    33    18    10    1
    34    17    12   ar
    35    32    33    1
    36     7    19    1
@<TRIPOS>MOLECULE
*****
 33 36 0 0 0
SMALL
GASTEIGER

@<TRIPOS>ATOM
      1 C          71.5818   75.0542   13.7174 C.ar    1  UNL1       -0.0223
      2 C          72.5953   74.9251   12.6192 C.ar    1  UNL1       -0.0030
      3 C          72.6262   75.9291   11.5052 C.ar    1  UNL1        0.0144
      4 C          71.6435   77.0622   11.4894 C.ar    1  UNL1        0.0516
      5 C          70.6299   77.1914   12.5876 C.ar    1  UNL1        0.0144
      6 C          70.5991   76.1874   13.7016 C.ar    1  UNL1       -0.0030
      7 N          71.6743   78.0663   10.3754 N.am    1  UNL1       -0.2681
      8 C          71.8425   79.5244   10.6843 C.2     1  UNL1        0.3082
      9 O          71.9798   79.9785   12.1073 O.2     1  UNL1       -0.2522
     10 N          71.8734   80.5284    9.5703 N.am    1  UNL1       -0.2558
     11 C          72.0342   82.0118    9.7245 C.3     1  UNL1        0.1217
     12 C          72.0090   82.6255    8.3560 C.ar    1  UNL1       -0.0046
     13 C          72.1239   84.0470    7.8913 C.ar    1  UNL1       -0.0029
     14 C          72.0624   84.3645    6.4266 C.ar    1  UNL1       -0.0003
     15 C          71.8860   83.2604    5.4266 C.ar    1  UNL1       -0.0003
     16 C          71.7711   81.8389    5.8913 C.ar    1  UNL1       -0.0029
     17 C          71.8326   81.5214    7.3560 C.ar    1  UNL1       -0.0046
     18 C          71.7488   80.2254    8.1065 C.3     1  UNL1        0.1217
     19 H          71.5842   77.7682    9.4414 H       1  UNL1        0.1564
     20 C          71.4584   71.0381   18.1734 C.2     1  UNL1        0.2280
     21 O          70.6118   71.2890   19.3859 O.2     1  UNL1       -0.2748
     22 N          71.4893   72.0421   17.0594 N.am    1  UNL1       -0.2795
     23 C          72.3360   71.7913   15.8468 C.3     1  UNL1        0.0937
     24 C          72.3668   72.7953   14.7328 C.3     1  UNL1        0.0259
     25 C          71.5510   74.0502   14.8314 C.3     1  UNL1        0.0257
     26 C          70.7043   74.3010   16.0439 C.3     1  UNL1        0.0259
     27 C          70.6735   73.2970   17.1579 C.3     1  UNL1        0.0937
     28 C          72.2743   69.7832   18.0748 C.3     1  UNL1        0.1121
     29 C          70.4644   68.6874   17.9212 C.3     1  UNL1        0.0298
     30 C          71.7944   68.6411   17.2290 C.3     1  UNL1        0.0971
     31 C          73.1243   68.5949   16.5368 C.3     1  UNL1        0.0298
     32 O          71.3145   67.4991   16.3832 O.3     1  UNL1       -0.3862
     33 H          70.3461   67.5198   16.3313 H       1  UNL1        0.2102
@<TRIPOS>BOND
     1    29    30    1
     2    30    31    1
     3    30    32    1
     4    30    28    1
     5    28    20    1
     6    20    21    2
     7    20    22   am
     8    22    23    1
     9    23    24    1
    10    24    25    1
    11    25     1    1
    12     1     2   ar
    13     2     3   ar
    14     3     4   ar
    15     4     7    1
    16     7     8   am
    17     8     9    2
    18     8    10   am
    19    10    11    1
    20    11    12    1
    21    12    13   ar
    22    13    14   ar
    23    14    15   ar
    24    15    16   ar
    25    16    17   ar
    26    17    18    1
    27     4     5   ar
    28     5     6   ar
    29    25    26    1
    30    26    27    1
    31    27    22    1
    32     6     1   ar
    33    18    10    1
    34    17    12   ar
    35    32    33    1
    36     7    19    1
