@<TRIPOS>MOLECULE
*****
 21 23 0 0 0
SMALL
GASTEIGER

@<TRIPOS>ATOM
      1 C          65.2631   91.4009   13.7316 C.2     1  UNL1       -0.0245
      2 C          66.0464   91.4941   15.0074 C.3     1  UNL1        0.1323
      3 C          67.1092   92.5415   15.1602 C.2     1  UNL1        0.3267
      4 O          67.8925   92.6347   16.4361 O.2     1  UNL1       -0.2493
      5 O          67.3887   93.4957   14.0371 O.3     1  UNL1       -0.4077
      6 C          66.6055   93.4025   12.7612 C.2     1  UNL1        0.2295
      7 N          66.8851   94.3567   11.6382 N.am    1  UNL1       -0.1269
      8 C          66.1019   94.2635   10.3623 C.2     1  UNL1        0.3327
      9 O          66.3814   95.2177    9.2392 O.2     1  UNL1       -0.2501
     10 N          65.0390   93.2161   10.2095 N.am    1  UNL1       -0.2343
     11 C          64.7594   92.2619   11.3326 C.2     1  UNL1        0.2564
     12 O          63.6966   91.2145   11.1798 O.2     1  UNL1       -0.2696
     13 C          65.5427   92.3551   12.6085 C.2     1  UNL1        0.0976
     14 H          64.5249   93.1549    9.3721 H       1  UNL1        0.1595
     15 C          64.2003   90.3535   13.5788 C.3     1  UNL1        0.0229
     16 C          63.8382   89.4772   14.7412 C.3     1  UNL1        0.0044
     17 C          64.2827   88.0449   14.7677 C.3     1  UNL1        0.0003
     18 C          63.1329   88.1171   16.7563 C.3     1  UNL1        0.0000
     19 C          63.7762   87.1221   15.8364 C.3     1  UNL1        0.0000
     20 C          63.4933   85.8539   16.5856 C.3     1  UNL1        0.0000
     21 C          64.2437   85.8067   15.2878 C.3     1  UNL1        0.0000
@<TRIPOS>BOND
     1    18    19    1
     2    19    17    1
     3    17    16    1
     4    16    15    1
     5    15     1    1
     6     1     2    1
     7     2     3    1
     8     3     4    2
     9     3     5    1
    10     5     6    1
    11     6     7    2
    12     7     8    1
    13     8     9    2
    14     8    10   am
    15    10    11   am
    16    11    12    2
    17    11    13    1
    18    19    20    1
    19    20    21    1
    20    21    19    1
    21    13     1    2
    22    13     6    1
    23    10    14    1
@<TRIPOS>MOLECULE
*****
 21 23 0 0 0
SMALL
GASTEIGER

@<TRIPOS>ATOM
      1 C          63.9300   90.9861   12.6454 C.2     1  UNL1       -0.0245
      2 C          62.9639   90.2552   13.5300 C.3     1  UNL1        0.1323
      3 C          63.2543   90.1038   14.9938 C.2     1  UNL1        0.3267
      4 O          62.2882   89.3728   15.8784 O.2     1  UNL1       -0.2493
      5 O          64.5108   90.6832   15.5730 O.3     1  UNL1       -0.4077
      6 C          65.4768   91.4141   14.6884 C.2     1  UNL1        0.2295
      7 N          66.7333   91.9936   15.2676 N.am    1  UNL1       -0.1269
      8 C          67.6994   92.7245   14.3831 C.2     1  UNL1        0.3327
      9 O          68.9558   93.3040   14.9623 O.2     1  UNL1       -0.2501
     10 N          67.4090   92.8759   12.9192 N.am    1  UNL1       -0.2343
     11 C          66.1525   92.2965   12.3400 C.2     1  UNL1        0.2564
     12 O          65.8621   92.4479   10.8762 O.2     1  UNL1       -0.2696
     13 C          65.1864   91.5655   13.2246 C.2     1  UNL1        0.0976
     14 H          68.0430   93.3557   12.3386 H       1  UNL1        0.1595
     15 C          63.6396   91.1375   11.1816 C.3     1  UNL1        0.0229
     16 C          62.4207   90.4952   10.5884 C.3     1  UNL1        0.0044
     17 C          62.4775   89.0731   10.1149 C.3     1  UNL1        0.0003
     18 C          60.2796   89.5554    9.6479 C.3     1  UNL1        0.0000
     19 C          61.2346   88.3992    9.6138 C.3     1  UNL1        0.0000
     20 C          60.3234   87.3238    9.1010 C.3     1  UNL1        0.0000
     21 C          61.7579   87.0089    9.4058 C.3     1  UNL1        0.0000
@<TRIPOS>BOND
     1    18    19    1
     2    19    17    1
     3    17    16    1
     4    16    15    1
     5    15     1    1
     6     1     2    1
     7     2     3    1
     8     3     4    2
     9     3     5    1
    10     5     6    1
    11     6     7    2
    12     7     8    1
    13     8     9    2
    14     8    10   am
    15    10    11   am
    16    11    12    2
    17    11    13    1
    18    19    20    1
    19    20    21    1
    20    21    19    1
    21    13     1    2
    22    13     6    1
    23    10    14    1
@<TRIPOS>MOLECULE
*****
 21 23 0 0 0
SMALL
GASTEIGER

@<TRIPOS>ATOM
      1 C          64.1086   90.9881   13.0152 C.2     1  UNL1       -0.0245
      2 C          63.0331   90.2671   12.2581 C.3     1  UNL1        0.1323
      3 C          62.7899   90.5871   10.8130 C.2     1  UNL1        0.3267
      4 O          61.7143   89.8661   10.0558 O.2     1  UNL1       -0.2493
      5 O          63.6223   91.6281   10.1250 O.3     1  UNL1       -0.4077
      6 C          64.6979   92.3491   10.8821 C.2     1  UNL1        0.2295
      7 N          65.5303   93.3901   10.1940 N.am    1  UNL1       -0.1269
      8 C          66.6059   94.1111   10.9511 C.2     1  UNL1        0.3327
      9 O          67.4383   95.1521   10.2631 O.2     1  UNL1       -0.2501
     10 N          66.8491   93.7911   12.3964 N.am    1  UNL1       -0.2343
     11 C          66.0167   92.7501   13.0844 C.2     1  UNL1        0.2564
     12 O          66.2599   92.4301   14.5295 O.2     1  UNL1       -0.2696
     13 C          64.9411   92.0291   12.3272 C.2     1  UNL1        0.0976
     14 H          67.5551   94.2643   12.8933 H       1  UNL1        0.1595
     15 C          64.3518   90.6681   14.4604 C.3     1  UNL1        0.0229
     16 C          63.7534   89.4332   15.0661 C.3     1  UNL1        0.0044
     17 C          64.3837   88.0949   14.8178 C.3     1  UNL1        0.0003
     18 C          63.1920   87.5962   16.7185 C.3     1  UNL1        0.0000
     19 C          63.9718   86.9082   15.6375 C.3     1  UNL1        0.0000
     20 C          63.8306   85.4825   16.0818 C.3     1  UNL1        0.0000
     21 C          64.6085   85.8079   14.8413 C.3     1  UNL1        0.0000
@<TRIPOS>BOND
     1    18    19    1
     2    19    17    1
     3    17    16    1
     4    16    15    1
     5    15     1    1
     6     1     2    1
     7     2     3    1
     8     3     4    2
     9     3     5    1
    10     5     6    1
    11     6     7    2
    12     7     8    1
    13     8     9    2
    14     8    10   am
    15    10    11   am
    16    11    12    2
    17    11    13    1
    18    19    20    1
    19    20    21    1
    20    21    19    1
    21    13     1    2
    22    13     6    1
    23    10    14    1
@<TRIPOS>MOLECULE
*****
 21 23 0 0 0
SMALL
GASTEIGER

@<TRIPOS>ATOM
      1 C          61.7583   86.9659   10.8977 C.2     1  UNL1       -0.0245
      2 C          60.8649   87.0000    9.6934 C.3     1  UNL1        0.1323
      3 C          60.6045   88.2986    8.9893 C.2     1  UNL1        0.3267
      4 O          59.7110   88.3328    7.7849 O.2     1  UNL1       -0.2493
      5 O          61.2375   89.5631    9.4896 O.3     1  UNL1       -0.4077
      6 C          62.1310   89.5290   10.6940 C.2     1  UNL1        0.2295
      7 N          62.7640   90.7935   11.1943 N.am    1  UNL1       -0.1269
      8 C          63.6575   90.7593   12.3986 C.2     1  UNL1        0.3327
      9 O          64.2906   92.0238   12.8989 O.2     1  UNL1       -0.2501
     10 N          63.9179   89.4607   13.1028 N.am    1  UNL1       -0.2343
     11 C          63.2849   88.1962   12.6025 C.2     1  UNL1        0.2564
     12 O          63.5453   86.8976   13.3065 O.2     1  UNL1       -0.2696
     13 C          62.3914   88.2304   11.3980 C.2     1  UNL1        0.0976
     14 H          64.5043   89.4383   13.8932 H       1  UNL1        0.1595
     15 C          62.0187   85.6672   11.6019 C.3     1  UNL1        0.0229
     16 C          62.8102   84.5903   10.9207 C.3     1  UNL1        0.0044
     17 C          63.6413   83.6424   11.7335 C.3     1  UNL1        0.0003
     18 C          63.4777   81.7218   10.4821 C.3     1  UNL1        0.0000
     19 C          63.2205   82.2098   11.8770 C.3     1  UNL1        0.0000
     20 C          62.7105   80.9466   12.5048 C.3     1  UNL1        0.0000
     21 C          62.8172   82.2001   13.3217 C.3     1  UNL1        0.0000
@<TRIPOS>BOND
     1    18    19    1
     2    19    17    1
     3    17    16    1
     4    16    15    1
     5    15     1    1
     6     1     2    1
     7     2     3    1
     8     3     4    2
     9     3     5    1
    10     5     6    1
    11     6     7    2
    12     7     8    1
    13     8     9    2
    14     8    10   am
    15    10    11   am
    16    11    12    2
    17    11    13    1
    18    19    20    1
    19    20    21    1
    20    21    19    1
    21    13     1    2
    22    13     6    1
    23    10    14    1
@<TRIPOS>MOLECULE
*****
 21 23 0 0 0
SMALL
GASTEIGER

@<TRIPOS>ATOM
      1 C          63.9691   89.2752   13.5615 C.2     1  UNL1       -0.0245
      2 C          64.4278   88.3141   14.6178 C.3     1  UNL1        0.1323
      3 C          64.1526   86.8472   14.4676 C.2     1  UNL1        0.3267
      4 O          64.6112   85.8860   15.5239 O.2     1  UNL1       -0.2493
      5 O          63.4188   86.3415   13.2610 O.3     1  UNL1       -0.4077
      6 C          62.9602   87.3027   12.2047 C.2     1  UNL1        0.2295
      7 N          62.2264   86.7970   10.9981 N.am    1  UNL1       -0.1269
      8 C          61.7678   87.7581    9.9418 C.2     1  UNL1        0.3327
      9 O          61.0340   87.2524    8.7352 O.2     1  UNL1       -0.2501
     10 N          62.0429   89.2250   10.0920 N.am    1  UNL1       -0.2343
     11 C          62.7767   89.7307   11.2986 C.2     1  UNL1        0.2564
     12 O          63.0519   91.1976   11.4489 O.2     1  UNL1       -0.2696
     13 C          63.2353   88.7695   12.3549 C.2     1  UNL1        0.0976
     14 H          61.7419   89.8559    9.3987 H       1  UNL1        0.1595
     15 C          64.2443   90.7421   13.7117 C.3     1  UNL1        0.0229
     16 C          65.1207   91.2305   14.8268 C.3     1  UNL1        0.0044
     17 C          66.5948   91.3960   14.6046 C.3     1  UNL1        0.0003
     18 C          66.5532   93.6520   14.1685 C.3     1  UNL1        0.0000
     19 C          67.2799   92.6612   15.0289 C.3     1  UNL1        0.0000
     20 C          68.2173   93.5823   15.7519 C.3     1  UNL1        0.0000
     21 C          68.2445   92.1099   16.0366 C.3     1  UNL1        0.0000
@<TRIPOS>BOND
     1    18    19    1
     2    19    17    1
     3    17    16    1
     4    16    15    1
     5    15     1    1
     6     1     2    1
     7     2     3    1
     8     3     4    2
     9     3     5    1
    10     5     6    1
    11     6     7    2
    12     7     8    1
    13     8     9    2
    14     8    10   am
    15    10    11   am
    16    11    12    2
    17    11    13    1
    18    19    20    1
    19    20    21    1
    20    21    19    1
    21    13     1    2
    22    13     6    1
    23    10    14    1
@<TRIPOS>MOLECULE
*****
 21 23 0 0 0
SMALL
GASTEIGER

@<TRIPOS>ATOM
      1 C          62.7549   87.2922   11.8504 C.2     1  UNL1       -0.0245
      2 C          62.9942   85.9257   12.4209 C.3     1  UNL1        0.1323
      3 C          63.7541   85.7716   13.7049 C.2     1  UNL1        0.3267
      4 O          63.9934   84.4050   14.2754 O.2     1  UNL1       -0.2493
      5 O          64.2746   86.9839   14.4186 O.3     1  UNL1       -0.4077
      6 C          64.0353   88.3504   13.8481 C.2     1  UNL1        0.2295
      7 N          64.5558   89.5627   14.5617 N.am    1  UNL1       -0.1269
      8 C          64.3165   90.9292   13.9913 C.2     1  UNL1        0.3327
      9 O          64.8371   92.1416   14.7049 O.2     1  UNL1       -0.2501
     10 N          63.5567   91.0834   12.7072 N.am    1  UNL1       -0.2343
     11 C          63.0361   89.8710   11.9936 C.2     1  UNL1        0.2564
     12 O          62.2763   90.0252   10.7095 O.2     1  UNL1       -0.2696
     13 C          63.2755   88.5045   12.5641 C.2     1  UNL1        0.0976
     14 H          63.3996   91.9803   12.3328 H       1  UNL1        0.1595
     15 C          61.9951   87.4463   10.5663 C.3     1  UNL1        0.0229
     16 C          61.6137   86.2335    9.7703 C.3     1  UNL1        0.0044
     17 C          62.3711   85.8864    8.5230 C.3     1  UNL1        0.0003
     18 C          60.2819   85.8619    7.5659 C.3     1  UNL1        0.0000
     19 C          61.6514   85.2893    7.3502 C.3     1  UNL1        0.0000
     20 C          61.4073   84.4935    6.1024 C.3     1  UNL1        0.0000
     21 C          62.7709   84.5094    6.7270 C.3     1  UNL1        0.0000
@<TRIPOS>BOND
     1    18    19    1
     2    19    17    1
     3    17    16    1
     4    16    15    1
     5    15     1    1
     6     1     2    1
     7     2     3    1
     8     3     4    2
     9     3     5    1
    10     5     6    1
    11     6     7    2
    12     7     8    1
    13     8     9    2
    14     8    10   am
    15    10    11   am
    16    11    12    2
    17    11    13    1
    18    19    20    1
    19    20    21    1
    20    21    19    1
    21    13     1    2
    22    13     6    1
    23    10    14    1
@<TRIPOS>MOLECULE
*****
 21 23 0 0 0
SMALL
GASTEIGER

@<TRIPOS>ATOM
      1 C          62.3592   85.5920    9.7705 C.2     1  UNL1       -0.0245
      2 C          62.1220   84.8654    8.4799 C.3     1  UNL1        0.1323
      3 C          61.2016   85.4486    7.4491 C.2     1  UNL1        0.3267
      4 O          60.9643   84.7220    6.1584 O.2     1  UNL1       -0.2493
      5 O          60.5184   86.7585    7.7088 O.3     1  UNL1       -0.4077
      6 C          60.7557   87.4852    8.9994 C.2     1  UNL1        0.2295
      7 N          60.0725   88.7951    9.2591 N.am    1  UNL1       -0.1269
      8 C          60.3097   89.5217   10.5497 C.2     1  UNL1        0.3327
      9 O          59.6266   90.8316   10.8095 O.2     1  UNL1       -0.2501
     10 N          61.2302   88.9385   11.5806 N.am    1  UNL1       -0.2343
     11 C          61.9133   87.6286   11.3209 C.2     1  UNL1        0.2564
     12 O          62.8337   87.0453   12.3517 O.2     1  UNL1       -0.2696
     13 C          61.6760   86.9019   10.0302 C.2     1  UNL1        0.0976
     14 H          61.3859   89.4154   12.4277 H       1  UNL1        0.1595
     15 C          63.2796   85.0088   10.8014 C.3     1  UNL1        0.0229
     16 C          63.1968   83.5502   11.1414 C.3     1  UNL1        0.0044
     17 C          62.7212   83.1220   12.4980 C.3     1  UNL1        0.0003
     18 C          62.9229   81.0697   11.4837 C.3     1  UNL1        0.0000
     19 C          62.4673   81.6709   12.7803 C.3     1  UNL1        0.0000
     20 C          62.0551   80.4286   13.5128 C.3     1  UNL1        0.0000
     21 C          61.9235   81.7681   14.1748 C.3     1  UNL1        0.0000
@<TRIPOS>BOND
     1    18    19    1
     2    19    17    1
     3    17    16    1
     4    16    15    1
     5    15     1    1
     6     1     2    1
     7     2     3    1
     8     3     4    2
     9     3     5    1
    10     5     6    1
    11     6     7    2
    12     7     8    1
    13     8     9    2
    14     8    10   am
    15    10    11   am
    16    11    12    2
    17    11    13    1
    18    19    20    1
    19    20    21    1
    20    21    19    1
    21    13     1    2
    22    13     6    1
    23    10    14    1
@<TRIPOS>MOLECULE
*****
 21 23 0 0 0
SMALL
GASTEIGER

@<TRIPOS>ATOM
      1 C          62.9942   87.1663   12.2495 C.2     1  UNL1       -0.0245
      2 C          62.2052   87.3533   10.9876 C.3     1  UNL1        0.1323
      3 C          61.6096   86.1651   10.2925 C.2     1  UNL1        0.3267
      4 O          60.8204   86.3520    9.0306 O.2     1  UNL1       -0.2493
      5 O          61.8030   84.7898   10.8593 O.3     1  UNL1       -0.4077
      6 C          62.5920   84.6028   12.1212 C.2     1  UNL1        0.2295
      7 N          62.7855   83.2275   12.6880 N.am    1  UNL1       -0.1269
      8 C          63.5745   83.0405   13.9498 C.2     1  UNL1        0.3327
      9 O          63.7680   81.6653   14.5166 O.2     1  UNL1       -0.2501
     10 N          64.1702   84.2288   14.6450 N.am    1  UNL1       -0.2343
     11 C          63.9768   85.6041   14.0782 C.2     1  UNL1        0.2564
     12 O          64.5724   86.7924   14.7733 O.2     1  UNL1       -0.2696
     13 C          63.1877   85.7911   12.8163 C.2     1  UNL1        0.0976
     14 H          64.6881   84.1061   15.4732 H       1  UNL1        0.1595
     15 C          63.5899   88.3546   12.9447 C.3     1  UNL1        0.0229
     16 C          63.0972   89.7350   12.6256 C.3     1  UNL1        0.0044
     17 C          64.0110   90.9135   12.7872 C.3     1  UNL1        0.0003
     18 C          63.4320   91.1939   10.5809 C.3     1  UNL1        0.0000
     19 C          64.4066   91.7255   11.5896 C.3     1  UNL1        0.0000
     20 C          65.1406   92.7222   10.7424 C.3     1  UNL1        0.0000
     21 C          65.5186   92.5392   12.1824 C.3     1  UNL1        0.0000
@<TRIPOS>BOND
     1    18    19    1
     2    19    17    1
     3    17    16    1
     4    16    15    1
     5    15     1    1
     6     1     2    1
     7     2     3    1
     8     3     4    2
     9     3     5    1
    10     5     6    1
    11     6     7    2
    12     7     8    1
    13     8     9    2
    14     8    10   am
    15    10    11   am
    16    11    12    2
    17    11    13    1
    18    19    20    1
    19    20    21    1
    20    21    19    1
    21    13     1    2
    22    13     6    1
    23    10    14    1
@<TRIPOS>MOLECULE
*****
 21 23 0 0 0
SMALL
GASTEIGER

@<TRIPOS>ATOM
      1 C          63.4342   88.2405   12.8299 C.2     1  UNL1       -0.0245
      2 C          62.8578   89.1586   11.7931 C.3     1  UNL1        0.1323
      3 C          62.1048   88.5928   10.6257 C.2     1  UNL1        0.3267
      4 O          61.5285   89.5109    9.5889 O.2     1  UNL1       -0.2493
      5 O          61.9281   87.1090   10.4952 O.3     1  UNL1       -0.4077
      6 C          62.5044   86.1909   11.5319 C.2     1  UNL1        0.2295
      7 N          62.3277   84.7071   11.4013 N.am    1  UNL1       -0.1269
      8 C          62.9040   83.7891   12.4381 C.2     1  UNL1        0.3327
      9 O          62.7272   82.3052   12.3075 O.2     1  UNL1       -0.2501
     10 N          63.6571   84.3548   13.6056 N.am    1  UNL1       -0.2343
     11 C          63.8338   85.8386   13.7362 C.2     1  UNL1        0.2564
     12 O          64.5868   86.4044   14.9036 O.2     1  UNL1       -0.2696
     13 C          63.2574   86.7567   12.6993 C.2     1  UNL1        0.0976
     14 H          64.0353   83.7522   14.2861 H       1  UNL1        0.1595
     15 C          64.1872   88.8062   13.9974 C.3     1  UNL1        0.0229
     16 C          63.9200   90.2101   14.4531 C.3     1  UNL1        0.0044
     17 C          65.0514   91.0724   14.9288 C.3     1  UNL1        0.0003
     18 C          65.1057   91.9895   12.8223 C.3     1  UNL1        0.0000
     19 C          66.0352   91.6300   13.9433 C.3     1  UNL1        0.0000
     20 C          67.3418   92.0626   13.3472 C.3     1  UNL1        0.0000
     21 C          67.3065   91.4640   14.7221 C.3     1  UNL1        0.0000
@<TRIPOS>BOND
     1    18    19    1
     2    19    17    1
     3    17    16    1
     4    16    15    1
     5    15     1    1
     6     1     2    1
     7     2     3    1
     8     3     4    2
     9     3     5    1
    10     5     6    1
    11     6     7    2
    12     7     8    1
    13     8     9    2
    14     8    10   am
    15    10    11   am
    16    11    12    2
    17    11    13    1
    18    19    20    1
    19    20    21    1
    20    21    19    1
    21    13     1    2
    22    13     6    1
    23    10    14    1
