@<TRIPOS>MOLECULE
*****
 32 36 0 0 0
SMALL
GASTEIGER

@<TRIPOS>ATOM
      1 C          62.9704   86.3104   12.4537 C.2     1  UNL1        0.2506
      2 O          63.5586   87.2225   13.4891 O.2     1  UNL1       -0.2699
      3 N          62.0872   86.8684   11.3773 N.am    1  UNL1       -0.2723
      4 C          61.4991   85.9564   10.3419 C.3     1  UNL1        0.1257
      5 C          60.6159   86.5145    9.2655 C.3     1  UNL1        0.1637
      6 O          60.3209   87.9846    9.2246 O.3     1  UNL1       -0.3502
      7 C          60.9091   88.8967   10.2600 C.3     1  UNL1        0.1622
      8 C          61.7922   88.3386   11.3364 C.3     1  UNL1        0.1096
      9 C          64.0426   81.8654    9.9853 C.3     1  UNL1        0.0310
     10 C          63.8015   82.6178   11.2604 C.ar    1  UNL1       -0.0216
     11 C          63.8554   81.9000   12.5764 C.ar    1  UNL1       -0.0026
     12 C          63.6143   82.6524   13.8515 C.ar    1  UNL1        0.0207
     13 C          63.3193   84.1225   13.8106 C.ar    1  UNL1        0.1072
     14 C          63.2654   84.8402   12.4946 C.ar    1  UNL1        0.0726
     15 C          63.5065   84.0879   11.2195 C.ar    1  UNL1        0.0018
     16 N          63.0783   84.8748   15.0857 N.ar    1  UNL1       -0.1477
     17 N          64.1190   85.5815   15.9027 N.ar    1  UNL1       -0.1447
     18 C          63.4381   86.1960   17.0896 C.ar    1  UNL1        0.1446
     19 C          61.9765   85.8692   17.0062 C.ar    1  UNL1        0.1446
     20 N          61.7541   85.0526   15.7677 N.ar    1  UNL1       -0.1447
     21 C          62.3804   89.2507   12.3718 C.3     1  UNL1        0.0488
     22 C          63.3360   90.3321   11.9629 C.ar    1  UNL1       -0.0189
     23 C          63.2398   90.9401   10.5951 C.ar    1  UNL1       -0.0041
     24 C          64.1955   92.0216   10.1861 C.ar    1  UNL1        0.0012
     25 C          65.2473   92.4950   11.1450 C.ar    1  UNL1        0.0192
     26 C          65.3435   91.8870   12.5129 C.ar    1  UNL1        0.0843
     27 C          64.3879   90.8055   12.9218 C.ar    1  UNL1        0.0150
     28 N          66.3953   92.3604   13.4718 N.ar    1  UNL1       -0.2079
     29 C          67.8471   91.9840   13.4444 C.ar    1  UNL1        0.2016
     30 N          68.5291   92.6843   14.5821 N.ar    1  UNL1       -0.2004
     31 C          67.4989   93.4935   15.3127 C.ar    1  UNL1        0.2214
     32 N          66.1801   93.2933   14.6265 N.ar    1  UNL1       -0.1409
@<TRIPOS>BOND
     1     9    10    1
     2    10    11   ar
     3    11    12   ar
     4    12    13   ar
     5    13    16    1
     6    16    17   ar
     7    17    18   ar
     8    18    19   ar
     9    19    20   ar
    10    13    14   ar
    11    14     1    1
    12     1     2    2
    13     1     3   am
    14     3     4    1
    15     4     5    1
    16     5     6    1
    17     6     7    1
    18     7     8    1
    19     8    21    1
    20    21    22    1
    21    22    23   ar
    22    23    24   ar
    23    24    25   ar
    24    25    26   ar
    25    26    28    1
    26    28    29   ar
    27    29    30   ar
    28    30    31   ar
    29    31    32   ar
    30    26    27   ar
    31    14    15   ar
    32    15    10   ar
    33    20    16   ar
    34     8     3    1
    35    27    22   ar
    36    32    28   ar
@<TRIPOS>MOLECULE
*****
 32 36 0 0 0
SMALL
GASTEIGER

@<TRIPOS>ATOM
      1 C          62.6643   88.5307   11.5369 C.2     1  UNL1        0.2506
      2 O          62.6595   90.0302   11.4998 O.2     1  UNL1       -0.2699
      3 N          63.3083   87.8109   12.6845 N.am    1  UNL1       -0.2723
      4 C          63.3130   86.3113   12.7216 C.3     1  UNL1        0.1257
      5 C          63.9571   85.5915   13.8693 C.3     1  UNL1        0.1637
      6 O          64.5963   86.3712   14.9798 O.3     1  UNL1       -0.3502
      7 C          64.5916   87.8708   14.9428 C.3     1  UNL1        0.1622
      8 C          63.9476   88.5906   13.7951 C.3     1  UNL1        0.1096
      9 C          62.9996   84.9767    7.7611 C.3     1  UNL1        0.0310
     10 C          62.1926   85.9740    8.5384 C.ar    1  UNL1       -0.0216
     11 C          60.7464   86.1915    8.2052 C.ar    1  UNL1       -0.0026
     12 C          59.9395   87.1888    8.9825 C.ar    1  UNL1        0.0207
     13 C          60.5787   87.9685   10.0931 C.ar    1  UNL1        0.1072
     14 C          62.0249   87.7509   10.4263 C.ar    1  UNL1        0.0726
     15 C          62.8319   86.7537    9.6490 C.ar    1  UNL1        0.0018
     16 N          59.7718   88.9658   10.8704 N.ar    1  UNL1       -0.1477
     17 N          59.5587   90.4048   10.5044 N.ar    1  UNL1       -0.1447
     18 C          58.6914   91.0276   11.5580 C.ar    1  UNL1        0.1446
     19 C          58.3685   89.9735   12.5752 C.ar    1  UNL1        0.1446
     20 N          59.0362   88.6993   12.1502 N.ar    1  UNL1       -0.1447
     21 C          63.9429   90.0901   13.7580 C.3     1  UNL1        0.0488
     22 C          65.2380   90.8424   13.6758 C.ar    1  UNL1       -0.0189
     23 C          66.1515   90.8949   14.8643 C.ar    1  UNL1       -0.0041
     24 C          67.4467   91.6472   14.7821 C.ar    1  UNL1        0.0012
     25 C          67.8282   92.3470   13.5114 C.ar    1  UNL1        0.0192
     26 C          66.9145   92.2945   12.3229 C.ar    1  UNL1        0.0843
     27 C          65.6195   91.5422   12.4051 C.ar    1  UNL1        0.0150
     28 N          67.2960   92.9943   11.0521 N.ar    1  UNL1       -0.2079
     29 C          67.9577   92.3638    9.8628 C.ar    1  UNL1        0.2016
     30 N          68.1535   93.4273    8.8232 N.ar    1  UNL1       -0.2004
     31 C          67.6127   94.7151    9.3701 C.ar    1  UNL1        0.2214
     32 N          67.0828   94.4476   10.7477 N.ar    1  UNL1       -0.1409
@<TRIPOS>BOND
     1     9    10    1
     2    10    11   ar
     3    11    12   ar
     4    12    13   ar
     5    13    16    1
     6    16    17   ar
     7    17    18   ar
     8    18    19   ar
     9    19    20   ar
    10    13    14   ar
    11    14     1    1
    12     1     2    2
    13     1     3   am
    14     3     4    1
    15     4     5    1
    16     5     6    1
    17     6     7    1
    18     7     8    1
    19     8    21    1
    20    21    22    1
    21    22    23   ar
    22    23    24   ar
    23    24    25   ar
    24    25    26   ar
    25    26    28    1
    26    28    29   ar
    27    29    30   ar
    28    30    31   ar
    29    31    32   ar
    30    26    27   ar
    31    14    15   ar
    32    15    10   ar
    33    20    16   ar
    34     8     3    1
    35    27    22   ar
    36    32    28   ar
@<TRIPOS>MOLECULE
*****
 32 36 0 0 0
SMALL
GASTEIGER

@<TRIPOS>ATOM
      1 C          62.7225   87.3961   11.6820 C.2     1  UNL1        0.2506
      2 O          63.6695   87.8330   12.7602 O.2     1  UNL1       -0.2699
      3 N          61.6186   88.3094   11.2381 N.am    1  UNL1       -0.2723
      4 C          60.6716   87.8725   10.1599 C.3     1  UNL1        0.1257
      5 C          59.5676   88.7859    9.7160 C.3     1  UNL1        0.1637
      6 O          59.4106   90.1361   10.3503 O.3     1  UNL1       -0.3502
      7 C          60.3576   90.5730   11.4284 C.3     1  UNL1        0.1622
      8 C          61.4615   89.6597   11.8723 C.3     1  UNL1        0.1096
      9 C          62.8564   84.4085    7.4327 C.3     1  UNL1        0.0310
     10 C          62.9465   84.5521    8.9231 C.ar    1  UNL1       -0.0216
     11 C          63.1936   83.3455    9.7792 C.ar    1  UNL1       -0.0026
     12 C          63.2837   83.4891   11.2696 C.ar    1  UNL1        0.0207
     13 C          63.1267   84.8392   11.9039 C.ar    1  UNL1        0.1072
     14 C          62.8796   86.0458   11.0478 C.ar    1  UNL1        0.0726
     15 C          62.7895   85.9022    9.5574 C.ar    1  UNL1        0.0018
     16 N          63.2168   84.9828   13.3943 N.ar    1  UNL1       -0.1477
     17 N          62.0914   84.7939   14.3679 N.ar    1  UNL1       -0.1447
     18 C          62.6272   85.0348   15.7481 C.ar    1  UNL1        0.1446
     19 C          64.0836   85.3726   15.6275 C.ar    1  UNL1        0.1446
     20 N          64.4480   85.3405   14.1728 N.ar    1  UNL1       -0.1447
     21 C          62.4085   90.0965   12.9505 C.3     1  UNL1        0.0488
     22 C          63.6105   90.9238   12.6030 C.ar    1  UNL1       -0.0189
     23 C          63.7830   91.4469   11.2079 C.ar    1  UNL1       -0.0041
     24 C          64.9851   92.2742   10.8603 C.ar    1  UNL1        0.0012
     25 C          66.0146   92.5783   11.9080 C.ar    1  UNL1        0.0192
     26 C          65.8420   92.0551   13.3032 C.ar    1  UNL1        0.0843
     27 C          64.6400   91.2279   13.6507 C.ar    1  UNL1        0.0150
     28 N          66.8715   92.3592   14.3509 N.ar    1  UNL1       -0.2079
     29 C          66.6023   92.6100   15.8050 C.ar    1  UNL1        0.2016
     30 N          67.9154   92.8717   16.4812 N.ar    1  UNL1       -0.2004
     31 C          68.9963   92.7826   15.4450 C.ar    1  UNL1        0.2214
     32 N          68.3512   92.4658   14.1283 N.ar    1  UNL1       -0.1409
@<TRIPOS>BOND
     1     9    10    1
     2    10    11   ar
     3    11    12   ar
     4    12    13   ar
     5    13    16    1
     6    16    17   ar
     7    17    18   ar
     8    18    19   ar
     9    19    20   ar
    10    13    14   ar
    11    14     1    1
    12     1     2    2
    13     1     3   am
    14     3     4    1
    15     4     5    1
    16     5     6    1
    17     6     7    1
    18     7     8    1
    19     8    21    1
    20    21    22    1
    21    22    23   ar
    22    23    24   ar
    23    24    25   ar
    24    25    26   ar
    25    26    28    1
    26    28    29   ar
    27    29    30   ar
    28    30    31   ar
    29    31    32   ar
    30    26    27   ar
    31    14    15   ar
    32    15    10   ar
    33    20    16   ar
    34     8     3    1
    35    27    22   ar
    36    32    28   ar
@<TRIPOS>MOLECULE
*****
 32 36 0 0 0
SMALL
GASTEIGER

@<TRIPOS>ATOM
      1 C          63.3204   86.9944   13.0600 C.2     1  UNL1        0.2506
      2 O          63.7995   87.6442   14.3242 O.2     1  UNL1       -0.2699
      3 N          62.7775   87.8360   11.9433 N.am    1  UNL1       -0.2723
      4 C          62.2985   87.1862   10.6791 C.3     1  UNL1        0.1257
      5 C          61.7555   88.0279    9.5624 C.3     1  UNL1        0.1637
      6 O          61.6916   89.5192    9.7100 O.3     1  UNL1       -0.3502
      7 C          62.1706   90.1690   10.9743 C.3     1  UNL1        0.1622
      8 C          62.7136   89.3274   12.0909 C.3     1  UNL1        0.1096
      9 C          63.9586   82.7914   10.0721 C.3     1  UNL1        0.0310
     10 C          63.7035   83.4016   11.4184 C.ar    1  UNL1       -0.0216
     11 C          63.5123   82.5204   12.6171 C.ar    1  UNL1       -0.0026
     12 C          63.2572   83.1305   13.9635 C.ar    1  UNL1        0.0207
     13 C          63.1932   84.6218   14.1111 C.ar    1  UNL1        0.1072
     14 C          63.3844   85.5030   12.9124 C.ar    1  UNL1        0.0726
     15 C          63.6395   84.8929   11.5660 C.ar    1  UNL1        0.0018
     16 N          62.9381   85.2320   15.4574 N.ar    1  UNL1       -0.1477
     17 N          61.5924   85.4990   16.0637 N.ar    1  UNL1       -0.1447
     18 C          61.8065   86.1143   17.4149 C.ar    1  UNL1        0.1446
     19 C          63.2846   86.2275   17.6437 C.ar    1  UNL1        0.1446
     20 N          63.9840   85.6822   16.4339 N.ar    1  UNL1       -0.1447
     21 C          63.1926   89.9771   13.3552 C.3     1  UNL1        0.0488
     22 C          64.4801   90.7466   13.3618 C.ar    1  UNL1       -0.0189
     23 C          65.4308   90.6079   14.5137 C.ar    1  UNL1       -0.0041
     24 C          66.7184   91.3774   14.5203 C.ar    1  UNL1        0.0012
     25 C          67.0553   92.2856   13.3749 C.ar    1  UNL1        0.0192
     26 C          66.1045   92.4242   12.2230 C.ar    1  UNL1        0.0843
     27 C          64.8170   91.6547   12.2164 C.ar    1  UNL1        0.0150
     28 N          66.4414   93.3323   11.0776 N.ar    1  UNL1       -0.2079
     29 C          65.6984   94.5766   10.6909 C.ar    1  UNL1        0.2016
     30 N          66.3782   95.1689    9.4922 N.ar    1  UNL1       -0.2004
     31 C          67.5415   94.2906    9.1380 C.ar    1  UNL1        0.2214
     32 N          67.5806   93.1555   10.1178 N.ar    1  UNL1       -0.1409
@<TRIPOS>BOND
     1     9    10    1
     2    10    11   ar
     3    11    12   ar
     4    12    13   ar
     5    13    16    1
     6    16    17   ar
     7    17    18   ar
     8    18    19   ar
     9    19    20   ar
    10    13    14   ar
    11    14     1    1
    12     1     2    2
    13     1     3   am
    14     3     4    1
    15     4     5    1
    16     5     6    1
    17     6     7    1
    18     7     8    1
    19     8    21    1
    20    21    22    1
    21    22    23   ar
    22    23    24   ar
    23    24    25   ar
    24    25    26   ar
    25    26    28    1
    26    28    29   ar
    27    29    30   ar
    28    30    31   ar
    29    31    32   ar
    30    26    27   ar
    31    14    15   ar
    32    15    10   ar
    33    20    16   ar
    34     8     3    1
    35    27    22   ar
    36    32    28   ar
@<TRIPOS>MOLECULE
*****
 32 36 0 0 0
SMALL
GASTEIGER

@<TRIPOS>ATOM
      1 C          62.7361   87.2863   11.8028 C.2     1  UNL1        0.2506
      2 O          63.4107   87.4067   13.1372 O.2     1  UNL1       -0.2699
      3 N          61.9152   88.4239   11.2720 N.am    1  UNL1       -0.2723
      4 C          61.2406   88.3035    9.9377 C.3     1  UNL1        0.1257
      5 C          60.4197   89.4412    9.4069 C.3     1  UNL1        0.1637
      6 O          60.2733   90.6993   10.2105 O.3     1  UNL1       -0.3502
      7 C          60.9478   90.8197   11.5448 C.3     1  UNL1        0.1622
      8 C          61.7688   89.6821   12.0756 C.3     1  UNL1        0.1096
      9 C          62.7974   84.8642    7.2061 C.3     1  UNL1        0.0310
     10 C          62.9132   84.8171    8.7009 C.ar    1  UNL1       -0.0216
     11 C          63.1754   83.5120    9.3921 C.ar    1  UNL1       -0.0026
     12 C          63.2911   83.4649   10.8869 C.ar    1  UNL1        0.0207
     13 C          63.1447   84.7230   11.6905 C.ar    1  UNL1        0.1072
     14 C          62.8825   86.0281   10.9992 C.ar    1  UNL1        0.0726
     15 C          62.7668   86.0752    9.5045 C.ar    1  UNL1        0.0018
     16 N          63.2605   84.6759   13.1852 N.ar    1  UNL1       -0.1477
     17 N          62.1187   84.6576   14.1579 N.ar    1  UNL1       -0.1447
     18 C          62.6909   84.6092   15.5436 C.ar    1  UNL1        0.1446
     19 C          64.1864   84.5977   15.4274 C.ar    1  UNL1        0.1446
     20 N          64.5383   84.6389   13.9699 N.ar    1  UNL1       -0.1447
     21 C          62.4433   89.8025   13.4100 C.3     1  UNL1        0.0488
     22 C          63.6671   90.6573   13.5573 C.ar    1  UNL1       -0.0189
     23 C          64.3122   90.8179   14.9019 C.ar    1  UNL1       -0.0041
     24 C          65.5361   91.6727   15.0492 C.ar    1  UNL1        0.0012
     25 C          66.1147   92.3668   13.8520 C.ar    1  UNL1        0.0192
     26 C          65.4695   92.2061   12.5073 C.ar    1  UNL1        0.0843
     27 C          64.2457   91.3513   12.3600 C.ar    1  UNL1        0.0150
     28 N          66.0481   92.9002   11.3101 N.ar    1  UNL1       -0.2079
     29 C          65.6575   94.2568   10.8031 C.ar    1  UNL1        0.2016
     30 N          66.4870   94.5545    9.5893 N.ar    1  UNL1       -0.2004
     31 C          67.3902   93.3819    9.3460 C.ar    1  UNL1        0.2214
     32 N          67.1190   92.3594   10.4095 N.ar    1  UNL1       -0.1409
@<TRIPOS>BOND
     1     9    10    1
     2    10    11   ar
     3    11    12   ar
     4    12    13   ar
     5    13    16    1
     6    16    17   ar
     7    17    18   ar
     8    18    19   ar
     9    19    20   ar
    10    13    14   ar
    11    14     1    1
    12     1     2    2
    13     1     3   am
    14     3     4    1
    15     4     5    1
    16     5     6    1
    17     6     7    1
    18     7     8    1
    19     8    21    1
    20    21    22    1
    21    22    23   ar
    22    23    24   ar
    23    24    25   ar
    24    25    26   ar
    25    26    28    1
    26    28    29   ar
    27    29    30   ar
    28    30    31   ar
    29    31    32   ar
    30    26    27   ar
    31    14    15   ar
    32    15    10   ar
    33    20    16   ar
    34     8     3    1
    35    27    22   ar
    36    32    28   ar
@<TRIPOS>MOLECULE
*****
 32 36 0 0 0
SMALL
GASTEIGER

@<TRIPOS>ATOM
      1 C          63.4229   88.0001   13.2179 C.2     1  UNL1        0.2506
      2 O          63.6597   89.0905   12.2155 O.2     1  UNL1       -0.2699
      3 N          63.3617   88.3263   14.6807 N.am    1  UNL1       -0.2723
      4 C          63.1248   87.2359   15.6831 C.3     1  UNL1        0.1257
      5 C          63.0637   87.5622   17.1460 C.3     1  UNL1        0.1637
      6 O          63.2393   88.9789   17.6063 O.3     1  UNL1       -0.3502
      7 C          63.4762   90.0694   16.6039 C.3     1  UNL1        0.1622
      8 C          63.5374   89.7431   15.1412 C.3     1  UNL1        0.1096
      9 C          64.5581   82.9493   13.6660 C.3     1  UNL1        0.0310
     10 C          63.8148   84.0579   12.9815 C.ar    1  UNL1       -0.0216
     11 C          62.8959   83.7498   11.8367 C.ar    1  UNL1       -0.0026
     12 C          62.1527   84.8585   11.1523 C.ar    1  UNL1        0.0207
     13 C          62.3283   86.2752   11.6127 C.ar    1  UNL1        0.1072
     14 C          63.2472   86.5833   12.7575 C.ar    1  UNL1        0.0726
     15 C          63.9905   85.4746   13.4419 C.ar    1  UNL1        0.0018
     16 N          61.5850   87.3839   10.9282 N.ar    1  UNL1       -0.1477
     17 N          60.4174   88.1402   11.4890 N.ar    1  UNL1       -0.1447
     18 C          59.9896   89.1546   10.4702 C.ar    1  UNL1        0.1446
     19 C          60.8929   89.0252    9.2797 C.ar    1  UNL1        0.1446
     20 N          61.8789   87.9309    9.5628 N.ar    1  UNL1       -0.1447
     21 C          63.7742   90.8336   14.1388 C.3     1  UNL1        0.0488
     22 C          65.1645   91.3432   13.8993 C.ar    1  UNL1       -0.0189
     23 C          66.2033   91.2217   14.9745 C.ar    1  UNL1       -0.0041
     24 C          67.5937   91.7313   14.7350 C.ar    1  UNL1        0.0012
     25 C          67.9451   92.3624   13.4204 C.ar    1  UNL1        0.0192
     26 C          66.9062   92.4838   12.3452 C.ar    1  UNL1        0.0843
     27 C          65.5159   91.9742   12.5847 C.ar    1  UNL1        0.0150
     28 N          67.2577   93.1149   11.0306 N.ar    1  UNL1       -0.2079
     29 C          67.8156   92.4048    9.8329 C.ar    1  UNL1        0.2016
     30 N          68.0156   93.4179    8.7449 N.ar    1  UNL1       -0.2004
     31 C          67.5814   94.7541    9.2702 C.ar    1  UNL1        0.2214
     32 N          67.1129   94.5669   10.6829 N.ar    1  UNL1       -0.1409
@<TRIPOS>BOND
     1     9    10    1
     2    10    11   ar
     3    11    12   ar
     4    12    13   ar
     5    13    16    1
     6    16    17   ar
     7    17    18   ar
     8    18    19   ar
     9    19    20   ar
    10    13    14   ar
    11    14     1    1
    12     1     2    2
    13     1     3   am
    14     3     4    1
    15     4     5    1
    16     5     6    1
    17     6     7    1
    18     7     8    1
    19     8    21    1
    20    21    22    1
    21    22    23   ar
    22    23    24   ar
    23    24    25   ar
    24    25    26   ar
    25    26    28    1
    26    28    29   ar
    27    29    30   ar
    28    30    31   ar
    29    31    32   ar
    30    26    27   ar
    31    14    15   ar
    32    15    10   ar
    33    20    16   ar
    34     8     3    1
    35    27    22   ar
    36    32    28   ar
@<TRIPOS>MOLECULE
*****
 32 36 0 0 0
SMALL
GASTEIGER

@<TRIPOS>ATOM
      1 C          62.3663   84.7692   12.1554 C.2     1  UNL1        0.2506
      2 O          61.7796   85.8277   13.0417 O.2     1  UNL1       -0.2699
      3 N          62.5936   85.0511   10.6998 N.am    1  UNL1       -0.2723
      4 C          63.1802   83.9927    9.8136 C.3     1  UNL1        0.1257
      5 C          63.4075   84.2746    8.3579 C.3     1  UNL1        0.1637
      6 O          63.0482   85.6150    7.7886 O.3     1  UNL1       -0.3502
      7 C          62.4615   86.6735    8.6748 C.3     1  UNL1        0.1622
      8 C          62.2342   86.3916   10.1304 C.3     1  UNL1        0.1096
      9 C          62.7043   79.6089   11.6489 C.3     1  UNL1        0.0310
     10 C          62.8946   80.8486   12.4715 C.ar    1  UNL1       -0.0216
     11 C          63.4443   80.7480   13.8635 C.ar    1  UNL1       -0.0026
     12 C          63.6347   81.9878   14.6862 C.ar    1  UNL1        0.0207
     13 C          63.2754   83.3282   14.1168 C.ar    1  UNL1        0.1072
     14 C          62.7257   83.4288   12.7249 C.ar    1  UNL1        0.0726
     15 C          62.5353   82.1890   11.9022 C.ar    1  UNL1        0.0018
     16 N          63.4657   84.5679   14.9395 N.ar    1  UNL1       -0.1477
     17 N          64.5258   85.6089   14.7331 N.ar    1  UNL1       -0.1447
     18 C          64.3447   86.6687   15.7790 C.ar    1  UNL1        0.1446
     19 C          63.1726   86.2828   16.6318 C.ar    1  UNL1        0.1446
     20 N          62.6294   84.9845   16.1129 N.ar    1  UNL1       -0.1447
     21 C          61.6475   87.4500   11.0167 C.3     1  UNL1        0.0488
     22 C          62.2962   88.7997   11.1035 C.ar    1  UNL1       -0.0189
     23 C          62.3090   89.7040    9.9069 C.ar    1  UNL1       -0.0041
     24 C          62.9576   91.0538    9.9937 C.ar    1  UNL1        0.0012
     25 C          63.5935   91.4991   11.2771 C.ar    1  UNL1        0.0192
     26 C          63.5807   90.5947   12.4738 C.ar    1  UNL1        0.0843
     27 C          62.9321   89.2451   12.3870 C.ar    1  UNL1        0.0150
     28 N          64.2166   91.0401   13.7573 N.ar    1  UNL1       -0.2079
     29 C          65.6405   91.4793   13.9299 C.ar    1  UNL1        0.2016
     30 N          65.8442   91.8351   15.3728 N.ar    1  UNL1       -0.2004
     31 C          64.5462   91.6158   16.0920 C.ar    1  UNL1        0.2214
     32 N          63.5403   91.1244   15.0936 N.ar    1  UNL1       -0.1409
@<TRIPOS>BOND
     1     9    10    1
     2    10    11   ar
     3    11    12   ar
     4    12    13   ar
     5    13    16    1
     6    16    17   ar
     7    17    18   ar
     8    18    19   ar
     9    19    20   ar
    10    13    14   ar
    11    14     1    1
    12     1     2    2
    13     1     3   am
    14     3     4    1
    15     4     5    1
    16     5     6    1
    17     6     7    1
    18     7     8    1
    19     8    21    1
    20    21    22    1
    21    22    23   ar
    22    23    24   ar
    23    24    25   ar
    24    25    26   ar
    25    26    28    1
    26    28    29   ar
    27    29    30   ar
    28    30    31   ar
    29    31    32   ar
    30    26    27   ar
    31    14    15   ar
    32    15    10   ar
    33    20    16   ar
    34     8     3    1
    35    27    22   ar
    36    32    28   ar
@<TRIPOS>MOLECULE
*****
 32 36 0 0 0
SMALL
GASTEIGER

@<TRIPOS>ATOM
      1 C          62.8367   88.8778   12.0091 C.2     1  UNL1        0.2506
      2 O          62.9041   87.6464   12.8629 O.2     1  UNL1       -0.2699
      3 N          61.8927   88.9325   10.8448 N.am    1  UNL1       -0.2723
      4 C          61.8254   90.1639    9.9909 C.3     1  UNL1        0.1257
      5 C          60.8813   90.2185    8.8265 C.3     1  UNL1        0.1637
      6 O          60.0046   89.0417    8.5160 O.3     1  UNL1       -0.3502
      7 C          60.0719   87.8103    9.3698 C.3     1  UNL1        0.1622
      8 C          61.0160   87.7556   10.5341 C.3     1  UNL1        0.1096
      9 C          65.3400   93.1585   10.4567 C.3     1  UNL1        0.0310
     10 C          64.9651   92.1950   11.5435 C.ar    1  UNL1       -0.0216
     11 C          65.4669   92.4082   12.9408 C.ar    1  UNL1       -0.0026
     12 C          65.0921   91.4447   14.0276 C.ar    1  UNL1        0.0207
     13 C          64.2154   90.2679   13.7171 C.ar    1  UNL1        0.1072
     14 C          63.7135   90.0547   12.3197 C.ar    1  UNL1        0.0726
     15 C          64.0884   91.0182   11.2329 C.ar    1  UNL1        0.0018
     16 N          63.8405   89.3044   14.8039 N.ar    1  UNL1       -0.1477
     17 N          62.9032   89.5803   15.9420 N.ar    1  UNL1       -0.1447
     18 C          62.8205   88.3422   16.7849 C.ar    1  UNL1        0.1446
     19 C          63.7067   87.3012   16.1677 C.ar    1  UNL1        0.1446
     20 N          64.3371   87.8959   14.9434 N.ar    1  UNL1       -0.1447
     21 C          61.0833   86.5242   11.3880 C.3     1  UNL1        0.0488
     22 C          61.9831   85.3893   10.9978 C.ar    1  UNL1       -0.0189
     23 C          62.7252   85.4344    9.6950 C.ar    1  UNL1       -0.0041
     24 C          63.6251   84.2994    9.3047 C.ar    1  UNL1        0.0012
     25 C          63.7828   83.1195   10.2173 C.ar    1  UNL1        0.0192
     26 C          63.0407   83.0744   11.5201 C.ar    1  UNL1        0.0843
     27 C          62.1409   84.2093   11.9103 C.ar    1  UNL1        0.0150
     28 N          63.1984   81.8945   12.4327 N.ar    1  UNL1       -0.2079
     29 C          64.0809   81.8283   13.6438 C.ar    1  UNL1        0.2016
     30 N          63.9293   80.4664   14.2541 N.ar    1  UNL1       -0.2004
     31 C          62.9531   79.6909   13.4201 C.ar    1  UNL1        0.2214
     32 N          62.5013   80.5734   12.2944 N.ar    1  UNL1       -0.1409
@<TRIPOS>BOND
     1     9    10    1
     2    10    11   ar
     3    11    12   ar
     4    12    13   ar
     5    13    16    1
     6    16    17   ar
     7    17    18   ar
     8    18    19   ar
     9    19    20   ar
    10    13    14   ar
    11    14     1    1
    12     1     2    2
    13     1     3   am
    14     3     4    1
    15     4     5    1
    16     5     6    1
    17     6     7    1
    18     7     8    1
    19     8    21    1
    20    21    22    1
    21    22    23   ar
    22    23    24   ar
    23    24    25   ar
    24    25    26   ar
    25    26    28    1
    26    28    29   ar
    27    29    30   ar
    28    30    31   ar
    29    31    32   ar
    30    26    27   ar
    31    14    15   ar
    32    15    10   ar
    33    20    16   ar
    34     8     3    1
    35    27    22   ar
    36    32    28   ar
