@<TRIPOS>MOLECULE
*****
 36 39 0 0 0
SMALL
GASTEIGER

@<TRIPOS>ATOM
      1 C          66.0370   93.4434   12.7264 C.ar    1  UNL1        0.1726
      2 C          65.0088   92.5841   12.0523 C.ar    1  UNL1        0.0411
      3 C          64.6331   91.2588   12.6460 C.ar    1  UNL1        0.0180
      4 C          65.2855   90.7928   13.9137 C.ar    1  UNL1        0.0530
      5 C          66.3137   91.6521   14.5878 C.ar    1  UNL1        0.0475
      6 C          66.6894   92.9774   13.9942 C.ar    1  UNL1        0.1756
      7 F          67.7176   93.8367   14.6683 F       1  UNL1       -0.2009
      8 N          64.9097   89.4676   14.5073 N.am    1  UNL1       -0.2802
      9 C          63.8024   89.3843   15.5157 C.2     1  UNL1        0.2542
     10 O          63.0707   90.6264   15.9304 O.2     1  UNL1       -0.2696
     11 H          65.3899   88.6523   14.2351 H       1  UNL1        0.1552
     12 C          63.4266   88.0590   16.1093 C.ar    1  UNL1        0.1101
     13 C          62.9861   87.9762   17.5408 C.ar    1  UNL1        0.0109
     14 C          62.6104   86.6509   18.1344 C.ar    1  UNL1        0.0194
     15 C          62.6751   85.4084   17.2966 C.ar    1  UNL1        0.0829
     16 N          63.1157   85.4912   15.8651 N.ar    1  UNL1       -0.2730
     17 C          63.4914   86.8165   15.2715 C.ar    1  UNL1        0.2691
     18 O          63.9319   86.8993   13.8400 O.2     1  UNL1       -0.2665
     19 C          63.1804   84.2486   15.0273 C.ar    1  UNL1        0.0670
     20 C          64.3791   83.9878   14.1641 C.ar    1  UNL1        0.0199
     21 C          64.4438   82.7452   13.3262 C.ar    1  UNL1        0.0311
     22 C          63.3099   81.7636   13.3517 C.ar    1  UNL1        0.1402
     23 F          63.3747   80.5210   12.5139 F       1  UNL1       -0.2042
     24 C          62.1113   82.0245   14.2149 C.ar    1  UNL1        0.0311
     25 C          62.0465   83.2670   15.0527 C.ar    1  UNL1        0.0199
     26 O          66.4127   94.7687   12.1328 O.3     1  UNL1       -0.4502
     27 N          65.3282   96.8557    7.4994 N.pl3   1  UNL1       -0.3419
     28 C          66.1449   95.9247    8.3457 C.ar    1  UNL1        0.1390
     29 N          67.2359   95.1061    7.7216 N.ar    1  UNL1       -0.2285
     30 C          68.0526   94.1750    8.5679 C.ar    1  UNL1        0.1035
     31 C          67.7782   94.0626   10.0382 C.ar    1  UNL1        0.0591
     32 C          66.6872   94.8811   10.6623 C.ar    1  UNL1        0.1601
     33 C          65.8705   95.8122    9.8160 C.ar    1  UNL1        0.1231
     34 CL         64.7794   96.6308   10.4402 Cl      1  UNL1       -0.0761
     35 H          65.5083   96.9295    6.5343 H       1  UNL1        0.1437
     36 H          64.6121   97.3930    7.9090 H       1  UNL1        0.1437
@<TRIPOS>BOND
     1    27    28    1
     2    28    29   ar
     3    29    30   ar
     4    30    31   ar
     5    31    32   ar
     6    32    26    1
     7    26     1    1
     8     1     2   ar
     9     2     3   ar
    10     3     4   ar
    11     4     8    1
    12     8     9   am
    13     9    10    2
    14     9    12    1
    15    12    13   ar
    16    13    14   ar
    17    14    15   ar
    18    15    16   ar
    19    16    19    1
    20    19    20   ar
    21    20    21   ar
    22    21    22   ar
    23    22    23    1
    24    22    24   ar
    25    24    25   ar
    26    16    17   ar
    27    17    18    2
    28     4     5   ar
    29     5     6   ar
    30     6     7    1
    31    32    33   ar
    32    33    34    1
    33    33    28   ar
    34     6     1   ar
    35    17    12   ar
    36    25    19   ar
    37    27    35    1
    38    27    36    1
    39     8    11    1
@<TRIPOS>MOLECULE
*****
 36 39 0 0 0
SMALL
GASTEIGER

@<TRIPOS>ATOM
      1 C          66.0863   93.4574   13.0019 C.ar    1  UNL1        0.1726
      2 C          65.0138   92.5726   12.4390 C.ar    1  UNL1        0.0411
      3 C          64.6919   91.2676   13.1051 C.ar    1  UNL1        0.0180
      4 C          65.4424   90.8476   14.3340 C.ar    1  UNL1        0.0530
      5 C          66.5149   91.7324   14.8968 C.ar    1  UNL1        0.0475
      6 C          66.8369   93.0373   14.2308 C.ar    1  UNL1        0.1756
      7 F          67.9094   93.9221   14.7937 F       1  UNL1       -0.2009
      8 N          65.1205   89.5427   15.0000 N.am    1  UNL1       -0.2802
      9 C          63.6965   89.0815   15.0972 C.2     1  UNL1        0.2542
     10 O          62.5944   89.9251   14.5284 O.2     1  UNL1       -0.2696
     11 H          65.8439   88.9889   15.3733 H       1  UNL1        0.1552
     12 C          63.3746   87.7765   15.7632 C.ar    1  UNL1        0.1101
     13 C          63.0397   87.7431   17.2250 C.ar    1  UNL1        0.0109
     14 C          62.7178   86.4382   17.8910 C.ar    1  UNL1        0.0194
     15 C          62.7309   85.1668   17.0953 C.ar    1  UNL1        0.0829
     16 N          63.0658   85.2002   15.6335 N.ar    1  UNL1       -0.2730
     17 C          63.3876   86.5050   14.9675 C.ar    1  UNL1        0.2691
     18 O          63.7225   86.5385   13.5057 O.2     1  UNL1       -0.2665
     19 C          63.0788   83.9286   14.8378 C.ar    1  UNL1        0.0670
     20 C          61.9244   82.9751   14.9288 C.ar    1  UNL1        0.0199
     21 C          61.9374   81.7036   14.1330 C.ar    1  UNL1        0.0311
     22 C          63.1048   81.3856   13.2464 C.ar    1  UNL1        0.1402
     23 F          63.1178   80.1142   12.4507 F       1  UNL1       -0.2042
     24 C          64.2592   82.3392   13.1555 C.ar    1  UNL1        0.0311
     25 C          64.2461   83.6107   13.9512 C.ar    1  UNL1        0.0199
     26 O          66.4082   94.7623   12.3359 O.3     1  UNL1       -0.4502
     27 N          68.6709   92.6222    8.1766 N.pl3   1  UNL1       -0.3419
     28 C          67.8645   93.7270    8.7923 C.ar    1  UNL1        0.1390
     29 N          67.3831   94.8666    7.9440 N.ar    1  UNL1       -0.2285
     30 C          66.5767   95.9714    8.5597 C.ar    1  UNL1        0.1035
     31 C          66.2517   95.9367   10.0237 C.ar    1  UNL1        0.0591
     32 C          66.7331   94.7971   10.8719 C.ar    1  UNL1        0.1601
     33 C          67.5395   93.6922   10.2562 C.ar    1  UNL1        0.1231
     34 CL         68.0210   92.5526   11.1045 Cl      1  UNL1       -0.0761
     35 H          68.8842   92.6450    7.2157 H       1  UNL1        0.1437
     36 H          68.9868   91.8742    8.7333 H       1  UNL1        0.1437
@<TRIPOS>BOND
     1    27    28    1
     2    28    29   ar
     3    29    30   ar
     4    30    31   ar
     5    31    32   ar
     6    32    26    1
     7    26     1    1
     8     1     2   ar
     9     2     3   ar
    10     3     4   ar
    11     4     8    1
    12     8     9   am
    13     9    10    2
    14     9    12    1
    15    12    13   ar
    16    13    14   ar
    17    14    15   ar
    18    15    16   ar
    19    16    19    1
    20    19    20   ar
    21    20    21   ar
    22    21    22   ar
    23    22    23    1
    24    22    24   ar
    25    24    25   ar
    26    16    17   ar
    27    17    18    2
    28     4     5   ar
    29     5     6   ar
    30     6     7    1
    31    32    33   ar
    32    33    34    1
    33    33    28   ar
    34     6     1   ar
    35    17    12   ar
    36    25    19   ar
    37    27    35    1
    38    27    36    1
    39     8    11    1
@<TRIPOS>MOLECULE
*****
 36 39 0 0 0
SMALL
GASTEIGER

@<TRIPOS>ATOM
      1 C          64.8602   91.9366   12.5838 C.ar    1  UNL1        0.1726
      2 C          65.2153   91.2225   13.8543 C.ar    1  UNL1        0.0411
      3 C          64.6829   89.8443   14.1140 C.ar    1  UNL1        0.0180
      4 C          63.7956   89.1803   13.1032 C.ar    1  UNL1        0.0530
      5 C          63.4406   89.8944   11.8328 C.ar    1  UNL1        0.0475
      6 C          63.9728   91.2725   11.5731 C.ar    1  UNL1        0.1756
      7 F          63.6178   91.9865   10.3026 F       1  UNL1       -0.2009
      8 N          63.2634   87.8022   13.3629 N.am    1  UNL1       -0.2802
      9 C          64.0333   86.8522   14.2317 C.2     1  UNL1        0.2542
     10 O          65.3355   87.2803   14.8407 O.2     1  UNL1       -0.2696
     11 H          62.4087   87.5212   12.9632 H       1  UNL1        0.1552
     12 C          63.5009   85.4740   14.4914 C.ar    1  UNL1        0.1101
     13 C          62.9675   85.1194   15.8477 C.ar    1  UNL1        0.0109
     14 C          62.4352   83.7413   16.1074 C.ar    1  UNL1        0.0194
     15 C          62.4363   82.7179   15.0108 C.ar    1  UNL1        0.0829
     16 N          62.9698   83.0726   13.6545 N.ar    1  UNL1       -0.2730
     17 C          63.5021   84.4507   13.3947 C.ar    1  UNL1        0.2691
     18 O          64.0355   84.8053   12.0384 O.2     1  UNL1       -0.2665
     19 C          62.9709   82.0491   12.5578 C.ar    1  UNL1        0.0670
     20 C          62.5844   80.6306   12.8554 C.ar    1  UNL1        0.0199
     21 C          62.5855   79.6072   11.7587 C.ar    1  UNL1        0.0311
     22 C          62.9731   80.0022   10.3646 C.ar    1  UNL1        0.1402
     23 F          62.9742   78.9788    9.2679 F       1  UNL1       -0.2042
     24 C          63.3596   81.4208   10.0670 C.ar    1  UNL1        0.0311
     25 C          63.3585   82.4441   11.1637 C.ar    1  UNL1        0.0199
     26 O          65.3925   93.3147   12.3241 O.3     1  UNL1       -0.4502
     27 N          67.6530   96.5143    8.9105 N.pl3   1  UNL1       -0.3419
     28 C          67.4973   95.1439    9.5004 C.ar    1  UNL1        0.1390
     29 N          68.3162   94.0031    8.9733 N.ar    1  UNL1       -0.2285
     30 C          68.1605   92.6327    9.5632 C.ar    1  UNL1        0.1035
     31 C          67.1860   92.4033   10.6801 C.ar    1  UNL1        0.0591
     32 C          66.3671   93.5441   11.2072 C.ar    1  UNL1        0.1601
     33 C          66.5228   94.9145   10.6173 C.ar    1  UNL1        0.1231
     34 CL         65.7038   96.0554   11.1444 Cl      1  UNL1       -0.0761
     35 H          68.2926   96.6649    8.1775 H       1  UNL1        0.1437
     36 H          67.1155   97.2631    9.2565 H       1  UNL1        0.1437
@<TRIPOS>BOND
     1    27    28    1
     2    28    29   ar
     3    29    30   ar
     4    30    31   ar
     5    31    32   ar
     6    32    26    1
     7    26     1    1
     8     1     2   ar
     9     2     3   ar
    10     3     4   ar
    11     4     8    1
    12     8     9   am
    13     9    10    2
    14     9    12    1
    15    12    13   ar
    16    13    14   ar
    17    14    15   ar
    18    15    16   ar
    19    16    19    1
    20    19    20   ar
    21    20    21   ar
    22    21    22   ar
    23    22    23    1
    24    22    24   ar
    25    24    25   ar
    26    16    17   ar
    27    17    18    2
    28     4     5   ar
    29     5     6   ar
    30     6     7    1
    31    32    33   ar
    32    33    34    1
    33    33    28   ar
    34     6     1   ar
    35    17    12   ar
    36    25    19   ar
    37    27    35    1
    38    27    36    1
    39     8    11    1
@<TRIPOS>MOLECULE
*****
 36 39 0 0 0
SMALL
GASTEIGER

@<TRIPOS>ATOM
      1 C          61.9281   86.8878   11.4211 C.ar    1  UNL1        0.1726
      2 C          60.8733   86.4500   10.4486 C.ar    1  UNL1        0.0411
      3 C          60.3818   87.4002    9.3971 C.ar    1  UNL1        0.0180
      4 C          60.9451   88.7881    9.3181 C.ar    1  UNL1        0.0530
      5 C          62.0000   89.2259   10.2905 C.ar    1  UNL1        0.0475
      6 C          62.4915   88.2758   11.3420 C.ar    1  UNL1        0.1756
      7 F          63.5464   88.7136   12.3144 F       1  UNL1       -0.2009
      8 N          60.4536   89.7382    8.2666 N.am    1  UNL1       -0.2802
      9 C          59.6113   89.2323    7.1332 C.2     1  UNL1        0.2542
     10 O          59.2606   87.7762    7.0513 O.2     1  UNL1       -0.2696
     11 H          60.6838   90.6939    8.3204 H       1  UNL1        0.1552
     12 C          59.1198   90.1825    6.0817 C.ar    1  UNL1        0.1101
     13 C          57.6486   90.4258    5.9194 C.ar    1  UNL1        0.0109
     14 C          57.1571   91.3760    4.8680 C.ar    1  UNL1        0.0194
     15 C          58.1367   92.0828    3.9788 C.ar    1  UNL1        0.0829
     16 N          59.6079   91.8395    4.1411 N.ar    1  UNL1       -0.2730
     17 C          60.0995   90.8893    5.1926 C.ar    1  UNL1        0.2691
     18 O          61.5707   90.6460    5.3549 O.2     1  UNL1       -0.2665
     19 C          60.5876   92.5463    3.2519 C.ar    1  UNL1        0.0670
     20 C          60.1741   93.7871    2.5175 C.ar    1  UNL1        0.0199
     21 C          61.1538   94.4940    1.6283 C.ar    1  UNL1        0.0311
     22 C          62.5470   93.9600    1.4736 C.ar    1  UNL1        0.1402
     23 F          63.5267   94.6668    0.5844 F       1  UNL1       -0.2042
     24 C          62.9605   92.7192    2.2081 C.ar    1  UNL1        0.0311
     25 C          61.9808   92.0124    3.0972 C.ar    1  UNL1        0.0199
     26 O          62.4196   85.9377   12.4725 O.3     1  UNL1       -0.4502
     27 N          63.3078   80.9744   13.7286 N.pl3   1  UNL1       -0.3419
     28 C          63.3179   82.0796   12.7144 C.ar    1  UNL1        0.1390
     29 N          63.7822   81.8083   11.3141 N.ar    1  UNL1       -0.2285
     30 C          63.7924   82.9135   10.3000 C.ar    1  UNL1        0.1035
     31 C          63.3382   84.2899   10.6861 C.ar    1  UNL1        0.0591
     32 C          62.8739   84.5612   12.0864 C.ar    1  UNL1        0.1601
     33 C          62.8637   83.4560   13.1005 C.ar    1  UNL1        0.1231
     34 CL         62.3994   83.7273   14.5008 Cl      1  UNL1       -0.0761
     35 H          63.6059   80.0710   13.4751 H       1  UNL1        0.1437
     36 H          63.0030   81.1525   14.6476 H       1  UNL1        0.1437
@<TRIPOS>BOND
     1    27    28    1
     2    28    29   ar
     3    29    30   ar
     4    30    31   ar
     5    31    32   ar
     6    32    26    1
     7    26     1    1
     8     1     2   ar
     9     2     3   ar
    10     3     4   ar
    11     4     8    1
    12     8     9   am
    13     9    10    2
    14     9    12    1
    15    12    13   ar
    16    13    14   ar
    17    14    15   ar
    18    15    16   ar
    19    16    19    1
    20    19    20   ar
    21    20    21   ar
    22    21    22   ar
    23    22    23    1
    24    22    24   ar
    25    24    25   ar
    26    16    17   ar
    27    17    18    2
    28     4     5   ar
    29     5     6   ar
    30     6     7    1
    31    32    33   ar
    32    33    34    1
    33    33    28   ar
    34     6     1   ar
    35    17    12   ar
    36    25    19   ar
    37    27    35    1
    38    27    36    1
    39     8    11    1
@<TRIPOS>MOLECULE
*****
 36 39 0 0 0
SMALL
GASTEIGER

@<TRIPOS>ATOM
      1 C          63.0055   84.8058   13.9979 C.ar    1  UNL1        0.1726
      2 C          63.8616   85.0818   15.1983 C.ar    1  UNL1        0.0411
      3 C          64.5281   86.4167   15.3532 C.ar    1  UNL1        0.0180
      4 C          64.3385   87.4754   14.3078 C.ar    1  UNL1        0.0530
      5 C          63.4823   87.1994   13.1074 C.ar    1  UNL1        0.0475
      6 C          62.8159   85.8646   12.9524 C.ar    1  UNL1        0.1756
      7 F          61.9598   85.5886   11.7521 F       1  UNL1       -0.2009
      8 N          65.0049   88.8102   14.4627 N.am    1  UNL1       -0.2802
      9 C          64.5457   89.9778   13.6406 C.2     1  UNL1        0.2542
     10 O          63.4200   89.8106   12.6635 O.2     1  UNL1       -0.2696
     11 H          65.7438   88.9200   15.1040 H       1  UNL1        0.1552
     12 C          65.2123   91.3126   13.7955 C.ar    1  UNL1        0.1101
     13 C          65.5953   91.8058   15.1594 C.ar    1  UNL1        0.0109
     14 C          66.2618   93.1406   15.3144 C.ar    1  UNL1        0.0194
     15 C          66.5453   93.9822   14.1056 C.ar    1  UNL1        0.0829
     16 N          66.1623   93.4890   12.7418 N.ar    1  UNL1       -0.2730
     17 C          65.4958   92.1542   12.5867 C.ar    1  UNL1        0.2691
     18 O          65.1128   91.6611   11.2229 O.2     1  UNL1       -0.2665
     19 C          66.4458   94.3307   11.5329 C.ar    1  UNL1        0.0670
     20 C          67.1088   93.7212   10.3334 C.ar    1  UNL1        0.0199
     21 C          67.3923   94.5629    9.1245 C.ar    1  UNL1        0.0311
     22 C          67.0129   96.0141    9.1153 C.ar    1  UNL1        0.1402
     23 F          67.2964   96.8557    7.9065 F       1  UNL1       -0.2042
     24 C          66.3499   96.6236   10.3149 C.ar    1  UNL1        0.0311
     25 C          66.0664   95.7819   11.5237 C.ar    1  UNL1        0.0199
     26 O          62.3390   83.4710   13.8430 O.3     1  UNL1       -0.4502
     27 N          62.3949   78.7502   11.6724 N.pl3   1  UNL1       -0.3419
     28 C          62.7541   80.2058   11.6256 C.ar    1  UNL1        0.1390
     29 N          63.5006   80.7566   10.4469 N.ar    1  UNL1       -0.2285
     30 C          63.8598   82.2122   10.4002 C.ar    1  UNL1        0.1035
     31 C          63.4726   83.1170   11.5322 C.ar    1  UNL1        0.0591
     32 C          62.7262   82.5662   12.7109 C.ar    1  UNL1        0.1601
     33 C          62.3669   81.1106   12.7576 C.ar    1  UNL1        0.1231
     34 CL         61.6205   80.5598   13.9364 Cl      1  UNL1       -0.0761
     35 H          62.6490   78.1564   10.9294 H       1  UNL1        0.1437
     36 H          61.9049   78.3887   12.4460 H       1  UNL1        0.1437
@<TRIPOS>BOND
     1    27    28    1
     2    28    29   ar
     3    29    30   ar
     4    30    31   ar
     5    31    32   ar
     6    32    26    1
     7    26     1    1
     8     1     2   ar
     9     2     3   ar
    10     3     4   ar
    11     4     8    1
    12     8     9   am
    13     9    10    2
    14     9    12    1
    15    12    13   ar
    16    13    14   ar
    17    14    15   ar
    18    15    16   ar
    19    16    19    1
    20    19    20   ar
    21    20    21   ar
    22    21    22   ar
    23    22    23    1
    24    22    24   ar
    25    24    25   ar
    26    16    17   ar
    27    17    18    2
    28     4     5   ar
    29     5     6   ar
    30     6     7    1
    31    32    33   ar
    32    33    34    1
    33    33    28   ar
    34     6     1   ar
    35    17    12   ar
    36    25    19   ar
    37    27    35    1
    38    27    36    1
    39     8    11    1
