@<TRIPOS>MOLECULE
*****
 30 32 0 0 0
SMALL
GASTEIGER

@<TRIPOS>ATOM
      1 N          61.0688   88.2000   10.9450 N.am    1  UNL1       -0.2584
      2 C          62.2613   88.7748   11.6503 C.2     1  UNL1        0.3080
      3 O          63.1832   87.8758   12.4196 O.2     1  UNL1       -0.2522
      4 N          62.5320   90.2489   11.5863 N.am    1  UNL1       -0.2681
      5 H          61.9269   90.8390   11.0813 H       1  UNL1        0.1564
      6 C          63.7245   90.8238   12.2916 C.ar    1  UNL1        0.0516
      7 C          64.0286   90.4178   13.7033 C.ar    1  UNL1        0.0147
      8 C          65.2211   90.9927   14.4086 C.ar    1  UNL1        0.0011
      9 C          66.1095   91.9736   13.7022 C.ar    1  UNL1       -0.0004
     10 C          65.8053   92.3794   12.2906 C.ar    1  UNL1        0.0011
     11 C          64.6128   91.8046   11.5853 C.ar    1  UNL1        0.0147
     12 C          67.3020   92.5484   14.4075 C.2     1  UNL1        0.0249
     13 C          67.2681   93.4387   15.6143 C.2     1  UNL1        0.1194
     14 N          68.6829   93.7745   15.9825 N.2     1  UNL1       -0.1510
     15 N          69.5912   93.0917   15.0033 N.2     1  UNL1       -0.1695
     16 C          68.7378   92.3340   14.0298 C.3     1  UNL1        0.1771
     17 C          60.7982   86.7260   11.0090 C.3     1  UNL1        0.1218
     18 C          63.3813   83.7159   10.8781 C.ar    1  UNL1        0.1385
     19 C          63.8521   83.8080    9.4570 C.ar    1  UNL1        0.0369
     20 C          63.3050   84.8728    8.5531 C.ar    1  UNL1        0.0028
     21 C          62.2870   85.8454    9.0704 C.ar    1  UNL1       -0.0024
     22 C          61.8162   85.7533   10.4916 C.ar    1  UNL1        0.0007
     23 C          62.3633   84.6886   11.3954 C.ar    1  UNL1        0.0343
     24 C          63.0964   81.4477   12.1126 C.3     1  UNL1        0.2525
     25 O          63.9284   82.6512   11.7820 O.3     1  UNL1       -0.4714
     26 C          60.1470   89.0991   10.1756 C.3     1  UNL1        0.1126
     27 C          60.4225   89.3973    8.7317 C.3     1  UNL1        0.0940
     28 N          59.5789   88.7695    7.6620 N.3     1  UNL1       -0.2688
     29 C          59.2275   89.5492    6.4297 C.3     1  UNL1        0.0897
     30 C          59.0867   87.3619    7.8247 C.3     1  UNL1        0.0897
@<TRIPOS>BOND
     1    24    25    1
     2    25    18    1
     3    18    19   ar
     4    19    20   ar
     5    20    21   ar
     6    21    22   ar
     7    22    17    1
     8    17     1    1
     9     1    26    1
    10    26    27    1
    11    27    28    1
    12    28    29    1
    13    28    30    1
    14     1     2   am
    15     2     3    2
    16     2     4   am
    17     4     6    1
    18     6     7   ar
    19     7     8   ar
    20     8     9   ar
    21     9    12    1
    22    12    13    2
    23    13    14    1
    24    14    15    2
    25    15    16    1
    26     9    10   ar
    27    10    11   ar
    28    22    23   ar
    29    23    18   ar
    30    11     6   ar
    31    16    12    1
    32     4     5    1
@<TRIPOS>MOLECULE
*****
 30 32 0 0 0
SMALL
GASTEIGER

@<TRIPOS>ATOM
      1 N          65.3819   92.4103   13.1847 N.am    1  UNL1       -0.2584
      2 C          64.5462   91.6190   12.2227 C.2     1  UNL1        0.3080
      3 O          64.4536   92.0413   10.7864 O.2     1  UNL1       -0.2522
      4 N          63.8031   90.4053   12.6970 N.am    1  UNL1       -0.2681
      5 H          63.8639   90.1281   13.6397 H       1  UNL1        0.1564
      6 C          62.9674   89.6140   11.7350 C.ar    1  UNL1        0.0516
      7 C          62.2074   90.3157   10.6487 C.ar    1  UNL1        0.0147
      8 C          61.3717   89.5244    9.6866 C.ar    1  UNL1        0.0011
      9 C          61.2961   88.0315    9.8109 C.ar    1  UNL1       -0.0004
     10 C          62.0561   87.3298   10.8971 C.ar    1  UNL1        0.0011
     11 C          62.8918   88.1211   11.8592 C.ar    1  UNL1        0.0147
     12 C          60.4604   87.2402    8.8488 C.2     1  UNL1        0.0249
     13 C          59.0132   87.4787    8.5351 C.2     1  UNL1        0.1194
     14 N          58.5835   86.4574    7.5240 N.2     1  UNL1       -0.1510
     15 N          59.7653   85.5876    7.2128 N.2     1  UNL1       -0.1695
     16 C          60.9254   86.0713    8.0316 C.3     1  UNL1        0.1771
     17 C          66.1249   93.6239   12.7105 C.3     1  UNL1        0.1218
     18 C          67.5484   94.7376    9.1773 C.ar    1  UNL1        0.1385
     19 C          68.3355   93.5202    8.7923 C.ar    1  UNL1        0.0369
     20 C          68.3858   92.3374    9.7133 C.ar    1  UNL1        0.0028
     21 C          67.6490   92.3719   11.0193 C.ar    1  UNL1       -0.0024
     22 C          66.8618   93.5893   11.4044 C.ar    1  UNL1        0.0007
     23 C          66.8115   94.7722   10.4833 C.ar    1  UNL1        0.0343
     24 C          66.1976   96.6275    8.0139 C.3     1  UNL1        0.2525
     25 O          67.4980   95.9205    8.2562 O.3     1  UNL1       -0.4714
     26 C          65.4745   91.9879   14.6211 C.3     1  UNL1        0.1126
     27 C          66.3155   92.7752   15.5817 C.3     1  UNL1        0.0940
     28 N          67.8056   92.8155   15.4150 N.3     1  UNL1       -0.2688
     29 C          68.5078   91.7145   14.6769 C.3     1  UNL1        0.0897
     30 C          68.5936   93.9568   15.9865 C.3     1  UNL1        0.0897
@<TRIPOS>BOND
     1    24    25    1
     2    25    18    1
     3    18    19   ar
     4    19    20   ar
     5    20    21   ar
     6    21    22   ar
     7    22    17    1
     8    17     1    1
     9     1    26    1
    10    26    27    1
    11    27    28    1
    12    28    29    1
    13    28    30    1
    14     1     2   am
    15     2     3    2
    16     2     4   am
    17     4     6    1
    18     6     7   ar
    19     7     8   ar
    20     8     9   ar
    21     9    12    1
    22    12    13    2
    23    13    14    1
    24    14    15    2
    25    15    16    1
    26     9    10   ar
    27    10    11   ar
    28    22    23   ar
    29    23    18   ar
    30    11     6   ar
    31    16    12    1
    32     4     5    1
@<TRIPOS>MOLECULE
*****
 30 32 0 0 0
SMALL
GASTEIGER

@<TRIPOS>ATOM
      1 N          65.2431   92.4422   12.9916 N.am    1  UNL1       -0.2584
      2 C          64.4283   91.6266   12.0320 C.2     1  UNL1        0.3080
      3 O          64.4001   91.9880   10.5765 O.2     1  UNL1       -0.2522
      4 N          63.6417   90.4496   12.5279 N.am    1  UNL1       -0.2681
      5 H          63.6602   90.2124   13.4833 H       1  UNL1        0.1564
      6 C          62.8269   89.6339   11.5683 C.ar    1  UNL1        0.0516
      7 C          62.8750   88.1359   11.6285 C.ar    1  UNL1        0.0147
      8 C          62.0602   87.3202   10.6688 C.ar    1  UNL1        0.0011
      9 C          61.1974   88.0027    9.6490 C.ar    1  UNL1       -0.0004
     10 C          61.1494   89.5007    9.5889 C.ar    1  UNL1        0.0011
     11 C          61.9642   90.3163   10.5485 C.ar    1  UNL1        0.0147
     12 C          60.3827   87.1870    8.6894 C.2     1  UNL1        0.0249
     13 C          58.9464   87.4252    8.3282 C.2     1  UNL1        0.1194
     14 N          58.5372   86.3754    7.3380 N.2     1  UNL1       -0.1510
     15 N          59.7205   85.4884    7.0872 N.2     1  UNL1       -0.1695
     16 C          60.8611   85.9900    7.9224 C.3     1  UNL1        0.1771
     17 C          66.0296   93.6192   12.4958 C.3     1  UNL1        0.1218
     18 C          67.5404   94.5234    8.9390 C.ar    1  UNL1        0.1385
     19 C          68.3748   93.3068    8.6679 C.ar    1  UNL1        0.0369
     20 C          68.4276   92.1943    9.6727 C.ar    1  UNL1        0.0028
     21 C          67.6459   92.2984   10.9487 C.ar    1  UNL1       -0.0024
     22 C          66.8114   93.5150   11.2198 C.ar    1  UNL1        0.0007
     23 C          66.7587   94.6275   10.2150 C.ar    1  UNL1        0.0343
     24 C          66.3268   96.5857    7.9272 C.3     1  UNL1        0.2525
     25 O          67.4877   95.6358    7.9342 O.3     1  UNL1       -0.4714
     26 C          65.2712   92.0808   14.4472 C.3     1  UNL1        0.1126
     27 C          65.5703   90.6714   14.8644 C.3     1  UNL1        0.0940
     28 N          64.4547   89.7608   15.2840 N.3     1  UNL1       -0.2688
     29 C          64.4174   88.3442   14.7918 C.3     1  UNL1        0.0897
     30 C          63.3764   90.2665   16.1959 C.3     1  UNL1        0.0897
@<TRIPOS>BOND
     1    24    25    1
     2    25    18    1
     3    18    19   ar
     4    19    20   ar
     5    20    21   ar
     6    21    22   ar
     7    22    17    1
     8    17     1    1
     9     1    26    1
    10    26    27    1
    11    27    28    1
    12    28    29    1
    13    28    30    1
    14     1     2   am
    15     2     3    2
    16     2     4   am
    17     4     6    1
    18     6     7   ar
    19     7     8   ar
    20     8     9   ar
    21     9    12    1
    22    12    13    2
    23    13    14    1
    24    14    15    2
    25    15    16    1
    26     9    10   ar
    27    10    11   ar
    28    22    23   ar
    29    23    18   ar
    30    11     6   ar
    31    16    12    1
    32     4     5    1
@<TRIPOS>MOLECULE
*****
 30 32 0 0 0
SMALL
GASTEIGER

@<TRIPOS>ATOM
      1 N          63.1371   90.2881   12.2044 N.am    1  UNL1       -0.2584
      2 C          63.2125   88.8289   12.5433 C.2     1  UNL1        0.3080
      3 O          63.8397   88.3900   13.8332 O.2     1  UNL1       -0.2522
      4 N          62.6608   87.8085   11.5922 N.am    1  UNL1       -0.2681
      5 H          62.2492   88.0966   10.7455 H       1  UNL1        0.1564
      6 C          62.7363   86.3492   11.9311 C.ar    1  UNL1        0.0516
      7 C          62.3175   85.3221   10.9212 C.ar    1  UNL1        0.0147
      8 C          62.3930   83.8628   11.2602 C.ar    1  UNL1        0.0011
      9 C          62.8872   83.4307   12.6089 C.ar    1  UNL1       -0.0004
     10 C          63.3059   84.4578   13.6187 C.ar    1  UNL1        0.0011
     11 C          63.2304   85.9171   13.2798 C.ar    1  UNL1        0.0147
     12 C          62.9627   81.9715   12.9479 C.2     1  UNL1        0.0249
     13 C          63.5171   81.3878   14.2135 C.2     1  UNL1        0.1194
     14 N          63.3940   79.8952   14.1285 N.2     1  UNL1       -0.1510
     15 N          62.7635   79.5565   12.8103 N.2     1  UNL1       -0.1695
     16 C          62.4969   80.8396   12.0805 C.3     1  UNL1        0.1771
     17 C          63.6888   91.3085   13.1554 C.3     1  UNL1        0.1218
     18 C          67.2830   92.4798   11.9474 C.ar    1  UNL1        0.1385
     19 C          68.0972   92.2112   13.1782 C.ar    1  UNL1        0.0369
     20 C          67.4419   91.6418   14.4014 C.ar    1  UNL1        0.0028
     21 C          65.9725   91.3409   14.3939 C.ar    1  UNL1       -0.0024
     22 C          65.1583   91.6094   13.1630 C.ar    1  UNL1        0.0007
     23 C          65.8136   92.1788   11.9398 C.ar    1  UNL1        0.0343
     24 C          68.3036   92.1492    9.5811 C.3     1  UNL1        0.2525
     25 O          67.9383   93.0492   10.7241 O.3     1  UNL1       -0.4714
     26 C          62.5099   90.7270   10.9144 C.3     1  UNL1        0.1126
     27 C          61.0181   90.8397   10.8059 C.3     1  UNL1        0.0940
     28 N          60.1770   89.6011   10.7153 N.3     1  UNL1       -0.2688
     29 C          60.1177   88.8270    9.4318 C.3     1  UNL1        0.0897
     30 C          59.3952   89.1365   11.9081 C.3     1  UNL1        0.0897
@<TRIPOS>BOND
     1    24    25    1
     2    25    18    1
     3    18    19   ar
     4    19    20   ar
     5    20    21   ar
     6    21    22   ar
     7    22    17    1
     8    17     1    1
     9     1    26    1
    10    26    27    1
    11    27    28    1
    12    28    29    1
    13    28    30    1
    14     1     2   am
    15     2     3    2
    16     2     4   am
    17     4     6    1
    18     6     7   ar
    19     7     8   ar
    20     8     9   ar
    21     9    12    1
    22    12    13    2
    23    13    14    1
    24    14    15    2
    25    15    16    1
    26     9    10   ar
    27    10    11   ar
    28    22    23   ar
    29    23    18   ar
    30    11     6   ar
    31    16    12    1
    32     4     5    1
@<TRIPOS>MOLECULE
*****
 30 32 0 0 0
SMALL
GASTEIGER

@<TRIPOS>ATOM
      1 N          64.5276   91.0011   13.4530 N.am    1  UNL1       -0.2584
      2 C          64.1296   89.5694   13.2480 C.2     1  UNL1        0.3080
      3 O          63.4555   89.1534   11.9743 O.2     1  UNL1       -0.2522
      4 N          64.4058   88.5538   14.3168 N.am    1  UNL1       -0.2681
      5 H          64.8483   88.8269   15.1528 H       1  UNL1        0.1564
      6 C          64.0079   87.1221   14.1118 C.ar    1  UNL1        0.0516
      7 C          63.3804   86.6961   12.8177 C.ar    1  UNL1        0.0147
      8 C          62.9824   85.2644   12.6127 C.ar    1  UNL1        0.0011
      9 C          63.2120   84.2589   13.7019 C.ar    1  UNL1       -0.0004
     10 C          63.8395   84.6850   14.9959 C.ar    1  UNL1        0.0011
     11 C          64.2374   86.1166   15.2009 C.ar    1  UNL1        0.0147
     12 C          62.8140   82.8272   13.4969 C.2     1  UNL1        0.0249
     13 C          61.9176   82.0244   14.3923 C.2     1  UNL1        0.1194
     14 N          61.7922   80.6480   13.8093 N.2     1  UNL1       -0.1510
     15 N          62.6111   80.6002   12.5535 N.2     1  UNL1       -0.1695
     16 C          63.2427   81.9470   12.3603 C.3     1  UNL1        0.1771
     17 C          64.2514   92.0167   12.3843 C.3     1  UNL1        0.1218
     18 C          66.3811   94.4332   10.0659 C.ar    1  UNL1        0.1385
     19 C          67.6271   93.6196    9.8772 C.ar    1  UNL1        0.0369
     20 C          67.7478   92.2717   10.5241 C.ar    1  UNL1        0.0028
     21 C          66.6226   91.7374   11.3598 C.ar    1  UNL1       -0.0024
     22 C          65.3767   92.5510   11.5485 C.ar    1  UNL1        0.0007
     23 C          65.2559   93.8989   10.9016 C.ar    1  UNL1        0.0343
     24 C          67.1969   96.1690    8.3133 C.3     1  UNL1        0.2525
     25 O          66.2604   95.7811    9.4190 O.3     1  UNL1       -0.4714
     26 C          65.2017   91.4171   14.7268 C.3     1  UNL1        0.1126
     27 C          66.6984   91.3976   14.8243 C.3     1  UNL1        0.0940
     28 N          67.4550   92.6803   15.0036 N.3     1  UNL1       -0.2688
     29 C          68.7379   92.6919   15.7810 C.3     1  UNL1        0.0897
     30 C          66.9289   93.9513   14.4057 C.3     1  UNL1        0.0897
@<TRIPOS>BOND
     1    24    25    1
     2    25    18    1
     3    18    19   ar
     4    19    20   ar
     5    20    21   ar
     6    21    22   ar
     7    22    17    1
     8    17     1    1
     9     1    26    1
    10    26    27    1
    11    27    28    1
    12    28    29    1
    13    28    30    1
    14     1     2   am
    15     2     3    2
    16     2     4   am
    17     4     6    1
    18     6     7   ar
    19     7     8   ar
    20     8     9   ar
    21     9    12    1
    22    12    13    2
    23    13    14    1
    24    14    15    2
    25    15    16    1
    26     9    10   ar
    27    10    11   ar
    28    22    23   ar
    29    23    18   ar
    30    11     6   ar
    31    16    12    1
    32     4     5    1
@<TRIPOS>MOLECULE
*****
 30 32 0 0 0
SMALL
GASTEIGER

@<TRIPOS>ATOM
      1 N          63.9431   90.2015   14.9082 N.am    1  UNL1       -0.2584
      2 C          63.6061   89.5776   13.5863 C.2     1  UNL1        0.3080
      3 O          63.6935   90.3910   12.3291 O.2     1  UNL1       -0.2522
      4 N          63.1818   88.1403   13.5218 N.am    1  UNL1       -0.2681
      5 H          63.1244   87.6064   14.3470 H       1  UNL1        0.1564
      6 C          62.8448   87.5164   12.2000 C.ar    1  UNL1        0.0516
      7 C          62.8961   86.0259   12.0393 C.ar    1  UNL1        0.0147
      8 C          62.5592   85.4020   10.7175 C.ar    1  UNL1        0.0011
      9 C          62.1709   86.2686    9.5563 C.ar    1  UNL1       -0.0004
     10 C          62.1197   87.7591    9.7170 C.ar    1  UNL1        0.0011
     11 C          62.4566   88.3830   11.0388 C.ar    1  UNL1        0.0147
     12 C          61.8340   85.6447    8.2345 C.2     1  UNL1        0.0249
     13 C          62.7818   84.8942    7.3466 C.2     1  UNL1        0.1194
     14 N          62.0237   84.4474    6.1318 N.2     1  UNL1       -0.1510
     15 N          60.6073   84.9219    6.2689 N.2     1  UNL1       -0.1695
     16 C          60.4900   85.6619    7.5685 C.3     1  UNL1        0.1771
     17 C          64.3674   91.6387   14.9727 C.3     1  UNL1        0.1218
     18 C          68.0957   92.0408   13.6732 C.ar    1  UNL1        0.1385
     19 C          68.7386   92.7016   14.8564 C.ar    1  UNL1        0.0369
     20 C          67.9244   93.0081   16.0784 C.ar    1  UNL1        0.0028
     21 C          66.4674   92.6538   16.1172 C.ar    1  UNL1       -0.0024
     22 C          65.8245   91.9931   14.9340 C.ar    1  UNL1        0.0007
     23 C          66.6387   91.6865   13.7120 C.ar    1  UNL1        0.0343
     24 C          68.3544   92.0231   11.0881 C.3     1  UNL1        0.2525
     25 O          68.9098   91.7343   12.4512 O.3     1  UNL1       -0.4714
     26 C          63.8557   89.3881   16.1655 C.3     1  UNL1        0.1126
     27 C          62.7516   88.3872   16.3360 C.3     1  UNL1        0.0940
     28 N          63.0639   87.0001   16.8139 N.3     1  UNL1       -0.2688
     29 C          63.8471   86.0647   15.9412 C.3     1  UNL1        0.0897
     30 C          62.5931   86.5484   18.1646 C.3     1  UNL1        0.0897
@<TRIPOS>BOND
     1    24    25    1
     2    25    18    1
     3    18    19   ar
     4    19    20   ar
     5    20    21   ar
     6    21    22   ar
     7    22    17    1
     8    17     1    1
     9     1    26    1
    10    26    27    1
    11    27    28    1
    12    28    29    1
    13    28    30    1
    14     1     2   am
    15     2     3    2
    16     2     4   am
    17     4     6    1
    18     6     7   ar
    19     7     8   ar
    20     8     9   ar
    21     9    12    1
    22    12    13    2
    23    13    14    1
    24    14    15    2
    25    15    16    1
    26     9    10   ar
    27    10    11   ar
    28    22    23   ar
    29    23    18   ar
    30    11     6   ar
    31    16    12    1
    32     4     5    1
@<TRIPOS>MOLECULE
*****
 30 32 0 0 0
SMALL
GASTEIGER

@<TRIPOS>ATOM
      1 N          64.1583   90.2634   13.7137 N.am    1  UNL1       -0.2584
      2 C          63.9167   88.7855   13.7996 C.2     1  UNL1        0.3080
      3 O          64.0728   88.0750   15.1113 O.2     1  UNL1       -0.2522
      4 N          63.5190   88.0181   12.5736 N.am    1  UNL1       -0.2681
      5 H          63.4166   88.4844   11.7126 H       1  UNL1        0.1564
      6 C          63.2774   86.5401   12.6595 C.ar    1  UNL1        0.0516
      7 C          63.8192   85.7577   13.8190 C.ar    1  UNL1        0.0147
      8 C          63.5776   84.2798   13.9049 C.ar    1  UNL1        0.0011
      9 C          62.7942   83.5843   12.8312 C.ar    1  UNL1       -0.0004
     10 C          62.2525   84.3667   11.6718 C.ar    1  UNL1        0.0011
     11 C          62.4941   85.8446   11.5859 C.ar    1  UNL1        0.0147
     12 C          62.5526   82.1064   12.9171 C.2     1  UNL1        0.0249
     13 C          61.7866   81.3994   13.9957 C.2     1  UNL1        0.1194
     14 N          61.7952   79.9320   13.6847 N.2     1  UNL1       -0.1510
     15 N          62.5665   79.7321   12.4138 N.2     1  UNL1       -0.1695
     16 C          63.0347   81.0759   11.9394 C.3     1  UNL1        0.1771
     17 C          64.5560   91.0308   14.9396 C.3     1  UNL1        0.1218
     18 C          68.2973   92.0046   14.0427 C.ar    1  UNL1        0.1385
     19 C          68.6445   92.8924   15.2008 C.ar    1  UNL1        0.0369
     20 C          67.6289   93.1598   16.2718 C.ar    1  UNL1        0.0028
     21 C          66.2661   92.5392   16.1848 C.ar    1  UNL1       -0.0024
     22 C          65.9189   91.6514   15.0267 C.ar    1  UNL1        0.0007
     23 C          66.9345   91.3841   13.9557 C.ar    1  UNL1        0.0343
     24 C          68.8714   91.5397   11.5519 C.3     1  UNL1        0.2525
     25 O          69.3130   91.7373   12.9717 O.3     1  UNL1       -0.4714
     26 C          64.0022   90.9739   12.4018 C.3     1  UNL1        0.1126
     27 C          64.2173   92.4562   12.3214 C.3     1  UNL1        0.0940
     28 N          65.3532   93.0063   11.5109 N.3     1  UNL1       -0.2688
     29 C          65.7369   92.3521   10.2166 C.3     1  UNL1        0.0897
     30 C          66.1056   94.2105   11.9945 C.3     1  UNL1        0.0897
@<TRIPOS>BOND
     1    24    25    1
     2    25    18    1
     3    18    19   ar
     4    19    20   ar
     5    20    21   ar
     6    21    22   ar
     7    22    17    1
     8    17     1    1
     9     1    26    1
    10    26    27    1
    11    27    28    1
    12    28    29    1
    13    28    30    1
    14     1     2   am
    15     2     3    2
    16     2     4   am
    17     4     6    1
    18     6     7   ar
    19     7     8   ar
    20     8     9   ar
    21     9    12    1
    22    12    13    2
    23    13    14    1
    24    14    15    2
    25    15    16    1
    26     9    10   ar
    27    10    11   ar
    28    22    23   ar
    29    23    18   ar
    30    11     6   ar
    31    16    12    1
    32     4     5    1
@<TRIPOS>MOLECULE
*****
 30 32 0 0 0
SMALL
GASTEIGER

@<TRIPOS>ATOM
      1 N          63.7407   89.5186   13.8890 N.am    1  UNL1       -0.2584
      2 C          63.5454   88.1521   13.3020 C.2     1  UNL1        0.3080
      3 O          63.0259   88.0043   11.9027 O.2     1  UNL1       -0.2522
      4 N          63.8696   86.9335   14.1144 N.am    1  UNL1       -0.2681
      5 H          64.2106   87.0305   15.0328 H       1  UNL1        0.1564
      6 C          63.6743   85.5670   13.5273 C.ar    1  UNL1        0.0516
      7 C          62.7600   85.3789   12.3531 C.ar    1  UNL1        0.0147
      8 C          62.5647   84.0124   11.7660 C.ar    1  UNL1        0.0011
      9 C          63.2837   82.8341   12.3532 C.ar    1  UNL1       -0.0004
     10 C          64.1980   83.0223   13.5273 C.ar    1  UNL1        0.0011
     11 C          64.3933   84.3888   14.1144 C.ar    1  UNL1        0.0147
     12 C          63.0884   81.4676   11.7661 C.2     1  UNL1        0.0249
     13 C          62.7288   80.2250   12.5254 C.2     1  UNL1        0.1194
     14 N          62.6366   79.0932   11.5453 N.2     1  UNL1       -0.1510
     15 N          62.9393   79.6364   10.1802 N.2     1  UNL1       -0.1695
     16 C          63.2185   81.1039   10.3167 C.3     1  UNL1        0.1771
     17 C          63.4164   90.7372   13.0768 C.3     1  UNL1        0.1218
     18 C          66.7180   92.9369   12.9699 C.ar    1  UNL1        0.1385
     19 C          66.7316   93.3579   11.5303 C.ar    1  UNL1        0.0369
     20 C          65.6402   92.9053   10.6062 C.ar    1  UNL1        0.0028
     21 C          64.5352   92.0318   11.1216 C.ar    1  UNL1       -0.0024
     22 C          64.5215   91.6108   12.5612 C.ar    1  UNL1        0.0007
     23 C          65.6129   92.0633   13.4854 C.ar    1  UNL1        0.0343
     24 C          67.6516   93.2276   15.3769 C.3     1  UNL1        0.2525
     25 O          67.8094   93.3894   13.8941 O.3     1  UNL1       -0.4714
     26 C          64.2602   89.6664   15.2885 C.3     1  UNL1        0.1126
     27 C          63.3044   89.6964   16.4441 C.3     1  UNL1        0.0940
     28 N          62.3857   88.5360   16.6878 N.3     1  UNL1       -0.2688
     29 C          60.9853   88.5624   16.1509 C.3     1  UNL1        0.0897
     30 C          62.8674   87.3492   17.4685 C.3     1  UNL1        0.0897
@<TRIPOS>BOND
     1    24    25    1
     2    25    18    1
     3    18    19   ar
     4    19    20   ar
     5    20    21   ar
     6    21    22   ar
     7    22    17    1
     8    17     1    1
     9     1    26    1
    10    26    27    1
    11    27    28    1
    12    28    29    1
    13    28    30    1
    14     1     2   am
    15     2     3    2
    16     2     4   am
    17     4     6    1
    18     6     7   ar
    19     7     8   ar
    20     8     9   ar
    21     9    12    1
    22    12    13    2
    23    13    14    1
    24    14    15    2
    25    15    16    1
    26     9    10   ar
    27    10    11   ar
    28    22    23   ar
    29    23    18   ar
    30    11     6   ar
    31    16    12    1
    32     4     5    1
@<TRIPOS>MOLECULE
*****
 30 32 0 0 0
SMALL
GASTEIGER

@<TRIPOS>ATOM
      1 N          64.2443   90.0053   13.4807 N.am    1  UNL1       -0.2584
      2 C          63.8471   88.5627   13.3757 C.2     1  UNL1        0.3080
      3 O          62.9802   88.1041   12.2407 O.2     1  UNL1       -0.2522
      4 N          64.3169   87.5785   14.4057 N.am    1  UNL1       -0.2681
      5 H          64.8859   87.8795   15.1507 H       1  UNL1        0.1564
      6 C          63.9197   86.1359   14.3007 C.ar    1  UNL1        0.0516
      7 C          63.4196   85.5887   12.9966 C.ar    1  UNL1        0.0147
      8 C          63.0225   84.1460   12.8916 C.ar    1  UNL1        0.0011
      9 C          63.1254   83.2506   14.0907 C.ar    1  UNL1       -0.0004
     10 C          63.6254   83.7978   15.3947 C.ar    1  UNL1        0.0011
     11 C          64.0226   85.2405   15.4997 C.ar    1  UNL1        0.0147
     12 C          62.7282   81.8080   13.9857 C.2     1  UNL1        0.0249
     13 C          63.6462   80.6603   13.6854 C.2     1  UNL1        0.1194
     14 N          62.8287   79.4027   13.6766 N.2     1  UNL1       -0.1510
     15 N          61.4054   79.7731   13.9715 N.2     1  UNL1       -0.1695
     16 C          61.3432   81.2596   14.1625 C.3     1  UNL1        0.1771
     17 C          63.7745   90.9894   12.4508 C.3     1  UNL1        0.1218
     18 C          60.0492   90.2272   11.3144 C.ar    1  UNL1        0.1385
     19 C          60.2416   90.0040    9.8436 C.ar    1  UNL1        0.0369
     20 C          61.6116   90.1092    9.2419 C.ar    1  UNL1        0.0028
     21 C          62.7892   90.4376   10.1109 C.ar    1  UNL1       -0.0024
     22 C          62.5969   90.6609   11.5817 C.ar    1  UNL1        0.0007
     23 C          61.2269   90.5557   12.1834 C.ar    1  UNL1        0.0343
     24 C          58.3586   89.0011   12.8597 C.3     1  UNL1        0.2525
     25 O          58.6792   90.1221   11.9161 O.3     1  UNL1       -0.4714
     26 C          65.1112   90.4638   14.6157 C.3     1  UNL1        0.1126
     27 C          66.4193   91.1416   14.3340 C.3     1  UNL1        0.0940
     28 N          66.6489   92.5501   14.7957 N.3     1  UNL1       -0.2688
     29 C          67.0153   92.8207   16.2249 C.3     1  UNL1        0.0897
     30 C          66.5122   93.6882   13.8282 C.3     1  UNL1        0.0897
@<TRIPOS>BOND
     1    24    25    1
     2    25    18    1
     3    18    19   ar
     4    19    20   ar
     5    20    21   ar
     6    21    22   ar
     7    22    17    1
     8    17     1    1
     9     1    26    1
    10    26    27    1
    11    27    28    1
    12    28    29    1
    13    28    30    1
    14     1     2   am
    15     2     3    2
    16     2     4   am
    17     4     6    1
    18     6     7   ar
    19     7     8   ar
    20     8     9   ar
    21     9    12    1
    22    12    13    2
    23    13    14    1
    24    14    15    2
    25    15    16    1
    26     9    10   ar
    27    10    11   ar
    28    22    23   ar
    29    23    18   ar
    30    11     6   ar
    31    16    12    1
    32     4     5    1
