@<TRIPOS>MOLECULE
*****
 18 19 0 0 0
SMALL
GASTEIGER

@<TRIPOS>ATOM
      1 C          66.4784   92.9064   14.8132 C.2     1  UNL1        0.1535
      2 N          65.9141   93.9501   13.8955 N.2     1  UNL1       -0.2470
      3 C          66.4701   93.7103   12.5231 C.3     1  UNL1        0.1720
      4 C          66.2669   94.4234   11.2192 C.3     1  UNL1        0.1652
      5 O          65.3589   95.6153   11.1497 O.3     1  UNL1       -0.3798
      6 C          66.9718   93.9445    9.9847 C.3     1  UNL1        0.1662
      7 O          66.7686   94.6575    8.6808 O.3     1  UNL1       -0.3795
      8 C          67.8798   92.7525   10.0542 C.3     1  UNL1        0.1456
      9 C          68.5846   92.2736    8.8198 C.3     1  UNL1        0.0348
     10 O          68.0829   92.0395   11.3582 O.3     1  UNL1       -0.3428
     11 C          67.3781   92.5184   12.5926 C.3     1  UNL1        0.1937
     12 S          67.3832   92.0215   14.0080 S.3     1  UNL1       -0.0497
     13 H          65.3398   95.9547   10.2412 H       1  UNL1        0.2105
     14 H          66.1571   95.3994    8.8098 H       1  UNL1        0.2105
     15 N          66.1887   92.7712   16.2787 N.pl3   1  UNL1       -0.3135
     16 H          66.8910   92.9694   16.9396 H       1  UNL1        0.1487
     17 C          64.1272   91.2087   16.0367 C.3     1  UNL1        0.0230
     18 C          64.8292   92.3340   16.7373 C.3     1  UNL1        0.0887
@<TRIPOS>BOND
     1    17    18    1
     2    18    15    1
     3    15     1    1
     4     1     2    2
     5     3     2    1
     6     3     4    1
     7     4     5    1
     8     4     6    1
     9     6     7    1
    10     6     8    1
    11     8     9    1
    12     8    10    1
    13    11    10    1
    14    11    12    1
    15    12     1    1
    16    11     3    1
    17    15    16    1
    18     5    13    1
    19     7    14    1
@<TRIPOS>MOLECULE
*****
 18 19 0 0 0
SMALL
GASTEIGER

@<TRIPOS>ATOM
      1 C          66.3922   93.6181   11.1408 C.2     1  UNL1        0.1535
      2 N          65.2944   92.8121   10.5122 N.2     1  UNL1       -0.2470
      3 C          64.6491   91.9895   11.5877 C.3     1  UNL1        0.1720
      4 C          63.5153   91.0079   11.5565 C.3     1  UNL1        0.1652
      5 O          62.8163   90.7103   10.2631 O.3     1  UNL1       -0.3798
      6 C          63.0805   90.3238   12.8187 C.3     1  UNL1        0.1662
      7 O          61.9467   89.3423   12.7874 O.3     1  UNL1       -0.3795
      8 C          63.7795   90.6214   14.1121 C.3     1  UNL1        0.1456
      9 C          63.3447   89.9374   15.3742 C.3     1  UNL1        0.0348
     10 O          64.9133   91.6030   14.1433 O.3     1  UNL1       -0.3428
     11 C          65.3481   92.2870   12.8811 C.3     1  UNL1        0.1937
     12 S          66.4254   93.2936   12.6049 S.3     1  UNL1       -0.0497
     13 H          62.1135   90.0599   10.4176 H       1  UNL1        0.2105
     14 H          61.6093   89.2667   11.8811 H       1  UNL1        0.2105
     15 N          67.2978   94.5798   10.4301 N.pl3   1  UNL1       -0.3135
     16 H          67.4041   95.4980   10.7690 H       1  UNL1        0.1487
     17 C          68.6451   92.7706    9.1410 C.3     1  UNL1        0.0230
     18 C          68.0416   94.1425    9.2031 C.3     1  UNL1        0.0887
@<TRIPOS>BOND
     1    17    18    1
     2    18    15    1
     3    15     1    1
     4     1     2    2
     5     3     2    1
     6     3     4    1
     7     4     5    1
     8     4     6    1
     9     6     7    1
    10     6     8    1
    11     8     9    1
    12     8    10    1
    13    11    10    1
    14    11    12    1
    15    12     1    1
    16    11     3    1
    17    15    16    1
    18     5    13    1
    19     7    14    1
@<TRIPOS>MOLECULE
*****
 18 19 0 0 0
SMALL
GASTEIGER

@<TRIPOS>ATOM
      1 C          63.6530   82.8410   14.5042 C.2     1  UNL1        0.1535
      2 N          63.0970   83.4780   15.7431 N.2     1  UNL1       -0.2470
      3 C          63.3561   84.9533   15.6622 C.3     1  UNL1        0.1720
      4 C          63.0324   86.0819   16.5957 C.3     1  UNL1        0.1652
      5 O          62.3162   85.8071   17.8847 O.3     1  UNL1       -0.3798
      6 C          63.4249   87.4853   16.2402 C.3     1  UNL1        0.1662
      7 O          63.1012   88.6139   17.1737 O.3     1  UNL1       -0.3795
      8 C          64.1411   87.7601   14.9512 C.3     1  UNL1        0.1456
      9 C          64.5336   89.1635   14.5957 C.3     1  UNL1        0.0348
     10 O          64.4648   86.6314   14.0177 O.3     1  UNL1       -0.3428
     11 C          64.0723   85.2281   14.3732 C.3     1  UNL1        0.1937
     12 S          64.2558   83.9226   13.6575 S.3     1  UNL1       -0.0497
     13 H          62.1861   86.6391   18.3660 H       1  UNL1        0.2105
     14 H          62.6412   88.2665   17.9538 H       1  UNL1        0.2105
     15 N          63.6133   81.3792   14.1704 N.pl3   1  UNL1       -0.3135
     16 H          64.3783   80.8019   14.3956 H       1  UNL1        0.1487
     17 C          61.0468   80.9828   14.0958 C.3     1  UNL1        0.0230
     18 C          62.4080   80.7969   13.4937 C.3     1  UNL1        0.0887
@<TRIPOS>BOND
     1    17    18    1
     2    18    15    1
     3    15     1    1
     4     1     2    2
     5     3     2    1
     6     3     4    1
     7     4     5    1
     8     4     6    1
     9     6     7    1
    10     6     8    1
    11     8     9    1
    12     8    10    1
    13    11    10    1
    14    11    12    1
    15    12     1    1
    16    11     3    1
    17    15    16    1
    18     5    13    1
    19     7    14    1
@<TRIPOS>MOLECULE
*****
 18 19 0 0 0
SMALL
GASTEIGER

@<TRIPOS>ATOM
      1 C          66.2593   93.4942   10.6736 C.2     1  UNL1        0.1535
      2 N          66.8759   93.9721   11.9548 N.2     1  UNL1       -0.2470
      3 C          66.2250   93.2333   13.0864 C.3     1  UNL1        0.1720
      4 C          66.4285   93.2908   14.5714 C.3     1  UNL1        0.1652
      5 O          67.4473   94.2253   15.1532 O.3     1  UNL1       -0.3798
      6 C          65.6130   92.4137   15.4747 C.3     1  UNL1        0.1662
      7 O          65.8164   92.4712   16.9597 O.3     1  UNL1       -0.3795
      8 C          64.5941   91.4791   14.8929 C.3     1  UNL1        0.1456
      9 C          63.7787   90.6021   15.7961 C.3     1  UNL1        0.0348
     10 O          64.3907   91.4217   13.4078 O.3     1  UNL1       -0.3428
     11 C          65.2061   92.2987   12.5046 C.3     1  UNL1        0.1937
     12 S          65.2273   92.4600   11.0135 S.3     1  UNL1       -0.0497
     13 H          67.4515   94.1383   16.1193 H       1  UNL1        0.2105
     14 H          66.5060   93.1212   17.1666 H       1  UNL1        0.2105
     15 N          66.6126   93.9673    9.2948 N.pl3   1  UNL1       -0.3135
     16 H          65.9602   94.4849    8.7697 H       1  UNL1        0.1487
     17 C          68.6945   92.4194    9.1536 C.3     1  UNL1        0.0230
     18 C          67.9600   93.6519    8.7159 C.3     1  UNL1        0.0887
@<TRIPOS>BOND
     1    17    18    1
     2    18    15    1
     3    15     1    1
     4     1     2    2
     5     3     2    1
     6     3     4    1
     7     4     5    1
     8     4     6    1
     9     6     7    1
    10     6     8    1
    11     8     9    1
    12     8    10    1
    13    11    10    1
    14    11    12    1
    15    12     1    1
    16    11     3    1
    17    15    16    1
    18     5    13    1
    19     7    14    1
@<TRIPOS>MOLECULE
*****
 18 19 0 0 0
SMALL
GASTEIGER

@<TRIPOS>ATOM
      1 C          63.3991   85.3273   16.0438 C.2     1  UNL1        0.1535
      2 N          62.7587   83.9737   15.9564 N.2     1  UNL1       -0.2470
      3 C          63.0346   83.4177   14.5908 C.3     1  UNL1        0.1720
      4 C          62.6522   82.1222   13.9385 C.3     1  UNL1        0.1652
      5 O          61.8413   81.1122   14.6951 O.3     1  UNL1       -0.3798
      6 C          63.0807   81.8367   12.5296 C.3     1  UNL1        0.1662
      7 O          62.6983   80.5412   11.8774 O.3     1  UNL1       -0.3795
      8 C          63.8916   82.8467   11.7731 C.3     1  UNL1        0.1456
      9 C          64.3202   82.5612   10.3643 C.3     1  UNL1        0.0348
     10 O          64.2741   84.1422   12.4255 O.3     1  UNL1       -0.3428
     11 C          63.8455   84.4276   13.8343 C.3     1  UNL1        0.1937
     12 S          64.0708   85.6078   14.7323 S.3     1  UNL1       -0.0497
     13 H          61.6827   80.3380   14.1326 H       1  UNL1        0.2105
     14 H          62.1796   80.0070   12.4990 H       1  UNL1        0.2105
     15 N          63.3725   86.2401   17.2338 N.pl3   1  UNL1       -0.3135
     16 H          63.9023   86.0210   18.0342 H       1  UNL1        0.1487
     17 C          63.1498   88.7877   16.7760 C.3     1  UNL1        0.0230
     18 C          62.5387   87.4866   17.2044 C.3     1  UNL1        0.0887
@<TRIPOS>BOND
     1    17    18    1
     2    18    15    1
     3    15     1    1
     4     1     2    2
     5     3     2    1
     6     3     4    1
     7     4     5    1
     8     4     6    1
     9     6     7    1
    10     6     8    1
    11     8     9    1
    12     8    10    1
    13    11    10    1
    14    11    12    1
    15    12     1    1
    16    11     3    1
    17    15    16    1
    18     5    13    1
    19     7    14    1
@<TRIPOS>MOLECULE
*****
 18 19 0 0 0
SMALL
GASTEIGER

@<TRIPOS>ATOM
      1 C          59.5053   88.4865    7.7231 C.2     1  UNL1        0.1535
      2 N          60.3266   89.2918    8.6860 N.2     1  UNL1       -0.2470
      3 C          60.9993   88.3401    9.6303 C.3     1  UNL1        0.1720
      4 C          61.9287   88.5623   10.7864 C.3     1  UNL1        0.1652
      5 O          62.3342   89.9558   11.1657 O.3     1  UNL1       -0.3798
      6 C          62.4528   87.3910   11.5634 C.3     1  UNL1        0.1662
      7 O          63.3822   87.6132   12.7196 O.3     1  UNL1       -0.3795
      8 C          62.0473   85.9975   11.1841 C.3     1  UNL1        0.1456
      9 C          62.5713   84.8263   11.9610 C.3     1  UNL1        0.0348
     10 O          61.1179   85.7754   10.0279 O.3     1  UNL1       -0.3428
     11 C          60.5939   86.9466    9.2510 C.3     1  UNL1        0.1937
     12 S          59.6706   87.0371    8.0723 S.3     1  UNL1       -0.0497
     13 H          62.9332   89.9221   11.9279 H       1  UNL1        0.2105
     14 H          63.5408   88.5639   12.8288 H       1  UNL1        0.2105
     15 N          58.6662   89.0345    6.6070 N.pl3   1  UNL1       -0.3135
     16 H          57.8031   88.6145    6.3882 H       1  UNL1        0.1487
     17 C          58.1484   91.1731    5.2257 C.3     1  UNL1        0.0230
     18 C          59.1421   90.2223    5.8244 C.3     1  UNL1        0.0887
@<TRIPOS>BOND
     1    17    18    1
     2    18    15    1
     3    15     1    1
     4     1     2    2
     5     3     2    1
     6     3     4    1
     7     4     5    1
     8     4     6    1
     9     6     7    1
    10     6     8    1
    11     8     9    1
    12     8    10    1
    13    11    10    1
    14    11    12    1
    15    12     1    1
    16    11     3    1
    17    15    16    1
    18     5    13    1
    19     7    14    1
@<TRIPOS>MOLECULE
*****
 18 19 0 0 0
SMALL
GASTEIGER

@<TRIPOS>ATOM
      1 C          66.1897   92.8459   13.5674 C.2     1  UNL1        0.1535
      2 N          65.2199   91.9564   14.2872 N.2     1  UNL1       -0.2470
      3 C          64.2871   91.3686   13.2701 C.3     1  UNL1        0.1720
      4 C          63.1304   90.4222   13.3976 C.3     1  UNL1        0.1652
      5 O          62.7370   89.8960   14.7460 O.3     1  UNL1       -0.3798
      6 C          62.3670   90.0020   12.1766 C.3     1  UNL1        0.1662
      7 O          61.2103   89.0556   12.3041 O.3     1  UNL1       -0.3795
      8 C          62.7603   90.5283   10.8282 C.3     1  UNL1        0.1456
      9 C          61.9970   90.1082    9.6072 C.3     1  UNL1        0.0348
     10 O          63.9171   91.4748   10.7007 O.3     1  UNL1       -0.3428
     11 C          64.6804   91.8949   11.9216 C.3     1  UNL1        0.1937
     12 S          65.8563   92.8079   12.1054 S.3     1  UNL1       -0.0497
     13 H          61.9764   89.3015   14.6518 H       1  UNL1        0.2105
     14 H          61.0912   88.8143   13.2360 H       1  UNL1        0.2105
     15 N          67.2983   93.6349   14.1987 N.pl3   1  UNL1       -0.3135
     16 H          67.8044   94.2880   13.6633 H       1  UNL1        0.1487
     17 C          68.5263   92.2931   16.0537 C.3     1  UNL1        0.0230
     18 C          67.6357   93.4290   15.6456 C.3     1  UNL1        0.0887
@<TRIPOS>BOND
     1    17    18    1
     2    18    15    1
     3    15     1    1
     4     1     2    2
     5     3     2    1
     6     3     4    1
     7     4     5    1
     8     4     6    1
     9     6     7    1
    10     6     8    1
    11     8     9    1
    12     8    10    1
    13    11    10    1
    14    11    12    1
    15    12     1    1
    16    11     3    1
    17    15    16    1
    18     5    13    1
    19     7    14    1
@<TRIPOS>MOLECULE
*****
 18 19 0 0 0
SMALL
GASTEIGER

@<TRIPOS>ATOM
      1 C          62.3309   89.6804   12.4402 C.2     1  UNL1        0.1535
      2 N          62.4087   89.8150   13.9321 N.2     1  UNL1       -0.2470
      3 C          63.5432   90.7416   14.2554 C.3     1  UNL1        0.1720
      4 C          64.0891   91.2431   15.5594 C.3     1  UNL1        0.1652
      5 O          63.4658   90.8051   16.8515 O.3     1  UNL1       -0.3798
      6 C          65.2585   92.1826   15.5713 C.3     1  UNL1        0.1662
      7 O          65.8044   92.6840   16.8753 O.3     1  UNL1       -0.3795
      8 C          65.8818   92.6205   14.2791 C.3     1  UNL1        0.1456
      9 C          67.0511   93.5600   14.2910 C.3     1  UNL1        0.0348
     10 O          65.3358   92.1190   12.9751 O.3     1  UNL1       -0.3428
     11 C          64.1665   91.1796   12.9632 C.3     1  UNL1        0.1937
     12 S          63.4173   90.5237   11.8414 S.3     1  UNL1       -0.0497
     13 H          63.9352   91.2179   17.5932 H       1  UNL1        0.2105
     14 H          65.2911   92.3073   17.6070 H       1  UNL1        0.2105
     15 N          61.3406   88.8484   11.6805 N.pl3   1  UNL1       -0.3135
     16 H          61.3981   87.8660   11.7094 H       1  UNL1        0.1487
     17 C          59.4170   90.5852   11.4978 C.3     1  UNL1        0.0230
     18 C          60.2627   89.5132   10.8767 C.3     1  UNL1        0.0887
@<TRIPOS>BOND
     1    17    18    1
     2    18    15    1
     3    15     1    1
     4     1     2    2
     5     3     2    1
     6     3     4    1
     7     4     5    1
     8     4     6    1
     9     6     7    1
    10     6     8    1
    11     8     9    1
    12     8    10    1
    13    11    10    1
    14    11    12    1
    15    12     1    1
    16    11     3    1
    17    15    16    1
    18     5    13    1
    19     7    14    1
@<TRIPOS>MOLECULE
*****
 18 19 0 0 0
SMALL
GASTEIGER

@<TRIPOS>ATOM
      1 C          62.0473   90.3316   10.3606 C.2     1  UNL1        0.1535
      2 N          63.0542   91.3519    9.9188 N.2     1  UNL1       -0.2470
      3 C          63.9960   91.5982   11.0601 C.3     1  UNL1        0.1720
      4 C          65.1855   92.5007   11.2029 C.3     1  UNL1        0.1652
      5 O          65.6103   93.3688   10.0558 O.3     1  UNL1       -0.3798
      6 C          65.9502   92.5353   12.4930 C.3     1  UNL1        0.1662
      7 O          67.1397   93.4378   12.6358 O.3     1  UNL1       -0.3795
      8 C          65.5253   91.6672   13.6401 C.3     1  UNL1        0.1456
      9 C          66.2899   91.7017   14.9301 C.3     1  UNL1        0.0348
     10 O          64.3357   90.7646   13.4972 O.3     1  UNL1       -0.3428
     11 C          63.5711   90.7301   12.2072 C.3     1  UNL1        0.1937
     12 S          62.3668   89.9474   11.7749 S.3     1  UNL1       -0.0497
     13 H          66.3898   93.8858   10.3129 H       1  UNL1        0.2105
     14 H          67.2765   93.9258   11.8087 H       1  UNL1        0.2105
     15 N          60.9190   89.7906    9.5333 N.pl3   1  UNL1       -0.3135
     16 H          60.4468   90.3785    8.9004 H       1  UNL1        0.1487
     17 C          61.4506   87.2633    9.2502 C.3     1  UNL1        0.0230
     18 C          60.5104   88.3539    9.6704 C.3     1  UNL1        0.0887
@<TRIPOS>BOND
     1    17    18    1
     2    18    15    1
     3    15     1    1
     4     1     2    2
     5     3     2    1
     6     3     4    1
     7     4     5    1
     8     4     6    1
     9     6     7    1
    10     6     8    1
    11     8     9    1
    12     8    10    1
    13    11    10    1
    14    11    12    1
    15    12     1    1
    16    11     3    1
    17    15    16    1
    18     5    13    1
    19     7    14    1
