@<TRIPOS>MOLECULE
*****
 22 24 0 0 0
SMALL
GASTEIGER

@<TRIPOS>ATOM
      1 N          64.1752   85.1262   13.9864 N.ar    1  UNL1       -0.3165
      2 C          64.8075   85.9625   15.0591 C.ar    1  UNL1        0.0779
      3 C          64.5335   87.4035   14.7453 C.ar    1  UNL1        0.0392
      4 C          63.7318   87.4577   13.4786 C.ar    1  UNL1        0.0985
      5 N          63.1749   88.6069   12.6918 N.ar    1  UNL1       -0.2423
      6 C          62.3965   88.3485   11.4358 C.ar    1  UNL1        0.0989
      7 C          62.1751   86.9411   10.9668 C.ar    1  UNL1        0.0206
      8 C          62.7320   85.7919   11.7537 C.ar    1  UNL1        0.0203
      9 C          63.5104   86.0502   13.0096 C.ar    1  UNL1        0.0782
     10 C          61.3966   86.6828    9.7108 C.ar    1  UNL1        0.0024
     11 C          60.0540   87.3224    9.5157 C.ar    1  UNL1        0.0001
     12 C          59.2756   87.0642    8.2597 C.ar    1  UNL1        0.0009
     13 C          59.8399   86.1662    7.1989 C.ar    1  UNL1        0.0114
     14 C          61.1826   85.5265    7.3941 C.ar    1  UNL1        0.0577
     15 CL         61.7469   84.6285    6.3334 Cl      1  UNL1       -0.0822
     16 C          61.9609   85.7848    8.6501 C.ar    1  UNL1        0.0114
     17 C          64.2028   83.6286   13.9048 C.3     1  UNL1        0.1920
     18 C          61.2083   81.0273   14.0345 C.3     1  UNL1        0.1150
     19 N          62.3693   81.8278   13.5232 N.am    1  UNL1       -0.2744
     20 C          62.8578   81.6280   12.1191 C.3     1  UNL1        0.1150
     21 C          63.0417   82.8281   14.4161 C.2     1  UNL1        0.2488
     22 O          62.5532   83.0279   15.8201 O.2     1  UNL1       -0.2728
@<TRIPOS>BOND
     1    18    19    1
     2    19    20    1
     3    19    21   am
     4    21    22    2
     5    21    17    1
     6    17     1    1
     7     1     2   ar
     8     2     3   ar
     9     3     4   ar
    10     4     5   ar
    11     5     6   ar
    12     6     7   ar
    13     7    10    1
    14    10    11   ar
    15    11    12   ar
    16    12    13   ar
    17    13    14   ar
    18    14    15    1
    19    14    16   ar
    20     7     8   ar
    21     8     9   ar
    22     9     1   ar
    23     9     4   ar
    24    16    10   ar
@<TRIPOS>MOLECULE
*****
 22 24 0 0 0
SMALL
GASTEIGER

@<TRIPOS>ATOM
      1 N          66.0503   93.2126   13.0469 N.ar    1  UNL1       -0.3165
      2 C          66.9082   93.2414   14.2770 C.ar    1  UNL1        0.0779
      3 C          66.6235   92.0002   15.0698 C.ar    1  UNL1        0.0392
      4 C          65.5897   91.2043   14.3296 C.ar    1  UNL1        0.0985
      5 N          64.9251   89.8942   14.6326 N.ar    1  UNL1       -0.2423
      6 C          63.9063   89.3333   13.6853 C.ar    1  UNL1        0.0989
      7 C          63.5520   90.0826   12.4351 C.ar    1  UNL1        0.0206
      8 C          64.2166   91.3928   12.1321 C.ar    1  UNL1        0.0203
      9 C          65.2354   91.9536   13.0794 C.ar    1  UNL1        0.0782
     10 C          62.5331   89.5217   11.4878 C.ar    1  UNL1        0.0024
     11 C          61.6344   90.4451   10.7201 C.ar    1  UNL1        0.0001
     12 C          60.6155   89.8842    9.7728 C.ar    1  UNL1        0.0009
     13 C          60.4954   88.3998    9.5933 C.ar    1  UNL1        0.0114
     14 C          61.3942   87.4764   10.3611 C.ar    1  UNL1        0.0577
     15 CL         61.2742   85.9920   10.1816 Cl      1  UNL1       -0.0822
     16 C          62.4131   88.0373   11.3083 C.ar    1  UNL1        0.0114
     17 C          66.0137   94.2590   11.9728 C.3     1  UNL1        0.1920
     18 C          67.4373   94.8516    8.3160 C.3     1  UNL1        0.1150
     19 N          66.6714   95.0568    9.5893 N.am    1  UNL1       -0.2744
     20 C          65.7975   96.2649    9.7525 C.3     1  UNL1        0.1150
     21 C          66.7795   94.0538   10.6994 C.2     1  UNL1        0.2488
     22 O          67.6535   92.8457   10.5361 O.2     1  UNL1       -0.2728
@<TRIPOS>BOND
     1    18    19    1
     2    19    20    1
     3    19    21   am
     4    21    22    2
     5    21    17    1
     6    17     1    1
     7     1     2   ar
     8     2     3   ar
     9     3     4   ar
    10     4     5   ar
    11     5     6   ar
    12     6     7   ar
    13     7    10    1
    14    10    11   ar
    15    11    12   ar
    16    12    13   ar
    17    13    14   ar
    18    14    15    1
    19    14    16   ar
    20     7     8   ar
    21     8     9   ar
    22     9     1   ar
    23     9     4   ar
    24    16    10   ar
@<TRIPOS>MOLECULE
*****
 22 24 0 0 0
SMALL
GASTEIGER

@<TRIPOS>ATOM
      1 N          63.8796   85.9832   15.6766 N.ar    1  UNL1       -0.3165
      2 C          63.1765   85.5947   16.9434 C.ar    1  UNL1        0.0779
      3 C          62.7247   86.8512   17.6268 C.ar    1  UNL1        0.0392
      4 C          63.1485   88.0162   16.7823 C.ar    1  UNL1        0.0985
      5 N          62.9767   89.4963   16.9552 N.ar    1  UNL1       -0.2423
      6 C          63.5187   90.4398   15.9227 C.ar    1  UNL1        0.0989
      7 C          64.2324   89.9033   14.7174 C.ar    1  UNL1        0.0206
      8 C          64.4042   88.4233   14.5446 C.ar    1  UNL1        0.0203
      9 C          63.8623   87.4798   15.5770 C.ar    1  UNL1        0.0782
     10 C          64.7743   90.8470   13.6849 C.ar    1  UNL1        0.0024
     11 C          66.0278   91.6227   13.9622 C.ar    1  UNL1        0.0001
     12 C          66.5698   92.5663   12.9297 C.ar    1  UNL1        0.0009
     13 C          65.8581   92.7342   11.6200 C.ar    1  UNL1        0.0114
     14 C          64.6046   91.9584   11.3428 C.ar    1  UNL1        0.0577
     15 CL         63.8929   92.1262   10.0330 Cl      1  UNL1       -0.0822
     16 C          64.0627   91.0148   12.3752 C.ar    1  UNL1        0.0114
     17 C          64.4923   85.0405   14.6836 C.3     1  UNL1        0.1920
     18 C          62.3702   82.2263   12.8596 C.3     1  UNL1        0.1150
     19 N          63.0265   83.5442   13.1464 N.am    1  UNL1       -0.2744
     20 C          62.8735   84.6838   12.1831 C.3     1  UNL1        0.1150
     21 C          63.8359   83.7226   14.3967 C.2     1  UNL1        0.2488
     22 O          63.9890   82.5830   15.3600 O.2     1  UNL1       -0.2728
@<TRIPOS>BOND
     1    18    19    1
     2    19    20    1
     3    19    21   am
     4    21    22    2
     5    21    17    1
     6    17     1    1
     7     1     2   ar
     8     2     3   ar
     9     3     4   ar
    10     4     5   ar
    11     5     6   ar
    12     6     7   ar
    13     7    10    1
    14    10    11   ar
    15    11    12   ar
    16    12    13   ar
    17    13    14   ar
    18    14    15    1
    19    14    16   ar
    20     7     8   ar
    21     8     9   ar
    22     9     1   ar
    23     9     4   ar
    24    16    10   ar
@<TRIPOS>MOLECULE
*****
 22 24 0 0 0
SMALL
GASTEIGER

@<TRIPOS>ATOM
      1 N          63.8169   89.9642   13.2619 N.ar    1  UNL1       -0.3165
      2 C          64.5364   89.6386   14.5371 C.ar    1  UNL1        0.0779
      3 C          64.5054   88.1500   14.7197 C.ar    1  UNL1        0.0392
      4 C          63.7667   87.5557   13.5573 C.ar    1  UNL1        0.0985
      5 N          63.4265   86.1385   13.2029 N.ar    1  UNL1       -0.2423
      6 C          62.6608   85.8425   11.9475 C.ar    1  UNL1        0.0989
      7 C          62.2353   86.9637   11.0465 C.ar    1  UNL1        0.0206
      8 C          62.5754   88.3809   11.4010 C.ar    1  UNL1        0.0203
      9 C          63.3411   88.6770   12.6563 C.ar    1  UNL1        0.0782
     10 C          61.4695   86.6676    9.7911 C.ar    1  UNL1        0.0024
     11 C          60.0911   87.2285    9.6035 C.ar    1  UNL1        0.0001
     12 C          59.3254   86.9324    8.3480 C.ar    1  UNL1        0.0009
     13 C          59.9382   86.0754    7.2803 C.ar    1  UNL1        0.0114
     14 C          61.3167   85.5146    7.4680 C.ar    1  UNL1        0.0577
     15 CL         61.9295   84.6576    6.4002 Cl      1  UNL1       -0.0822
     16 C          62.0823   85.8106    8.7233 C.ar    1  UNL1        0.0114
     17 C          63.6094   91.3362   12.6922 C.3     1  UNL1        0.1920
     18 C          66.4868   92.8531   10.4185 C.3     1  UNL1        0.1150
     19 N          65.7190   92.4211   11.6325 N.am    1  UNL1       -0.2744
     20 C          66.2927   92.6421   13.0007 C.3     1  UNL1        0.1150
     21 C          64.3774   91.7682   11.4782 C.2     1  UNL1        0.2488
     22 O          63.8037   91.5473   10.1100 O.2     1  UNL1       -0.2728
@<TRIPOS>BOND
     1    18    19    1
     2    19    20    1
     3    19    21   am
     4    21    22    2
     5    21    17    1
     6    17     1    1
     7     1     2   ar
     8     2     3   ar
     9     3     4   ar
    10     4     5   ar
    11     5     6   ar
    12     6     7   ar
    13     7    10    1
    14    10    11   ar
    15    11    12   ar
    16    12    13   ar
    17    13    14   ar
    18    14    15    1
    19    14    16   ar
    20     7     8   ar
    21     8     9   ar
    22     9     1   ar
    23     9     4   ar
    24    16    10   ar
@<TRIPOS>MOLECULE
*****
 22 24 0 0 0
SMALL
GASTEIGER

@<TRIPOS>ATOM
      1 N          64.2447   89.2554   13.9773 N.ar    1  UNL1       -0.3165
      2 C          64.8034   90.5866   14.3842 C.ar    1  UNL1        0.0779
      3 C          64.4816   91.5746   13.3024 C.ar    1  UNL1        0.0392
      4 C          63.7240   90.8540   12.2269 C.ar    1  UNL1        0.0985
      5 N          63.1486   91.3178   10.9216 N.ar    1  UNL1       -0.2423
      6 C          62.4268   90.3482   10.0334 C.ar    1  UNL1        0.0989
      7 C          62.2804   88.9148   10.4505 C.ar    1  UNL1        0.0206
      8 C          62.8558   88.4510   11.7558 C.ar    1  UNL1        0.0203
      9 C          63.5776   89.4206   12.6440 C.ar    1  UNL1        0.0782
     10 C          61.5586   87.9452    9.5623 C.ar    1  UNL1        0.0024
     11 C          60.0826   88.0895    9.3377 C.ar    1  UNL1        0.0001
     12 C          59.3607   87.1199    8.4494 C.ar    1  UNL1        0.0009
     13 C          60.1150   86.0060    7.7859 C.ar    1  UNL1        0.0114
     14 C          61.5910   85.8617    8.0105 C.ar    1  UNL1        0.0577
     15 CL         62.3453   84.7478    7.3469 Cl      1  UNL1       -0.0822
     16 C          62.3128   86.8313    8.8987 C.ar    1  UNL1        0.0114
     17 C          64.3369   87.9824   14.7653 C.3     1  UNL1        0.1920
     18 C          62.5820   86.3601   17.9337 C.3     1  UNL1        0.1150
     19 N          63.3165   86.4915   16.6325 N.am    1  UNL1       -0.2744
     20 C          63.7651   85.2635   15.8971 C.3     1  UNL1        0.1150
     21 C          63.6023   87.8509   16.0666 C.2     1  UNL1        0.2488
     22 O          63.1537   89.0789   16.8019 O.2     1  UNL1       -0.2728
@<TRIPOS>BOND
     1    18    19    1
     2    19    20    1
     3    19    21   am
     4    21    22    2
     5    21    17    1
     6    17     1    1
     7     1     2   ar
     8     2     3   ar
     9     3     4   ar
    10     4     5   ar
    11     5     6   ar
    12     6     7   ar
    13     7    10    1
    14    10    11   ar
    15    11    12   ar
    16    12    13   ar
    17    13    14   ar
    18    14    15    1
    19    14    16   ar
    20     7     8   ar
    21     8     9   ar
    22     9     1   ar
    23     9     4   ar
    24    16    10   ar
@<TRIPOS>MOLECULE
*****
 22 24 0 0 0
SMALL
GASTEIGER

@<TRIPOS>ATOM
      1 N          61.5588   86.4020    9.5721 N.ar    1  UNL1       -0.3165
      2 C          60.3187   86.3609    8.7292 C.ar    1  UNL1        0.0779
      3 C          59.6910   87.7228    8.7615 C.ar    1  UNL1        0.0392
      4 C          60.5432   88.6057    9.6243 C.ar    1  UNL1        0.0985
      5 N          60.4171   90.0474   10.0185 N.ar    1  UNL1       -0.2423
      6 C          61.4455   90.6729   10.9136 C.ar    1  UNL1        0.0989
      7 C          62.5999   89.8565   11.4146 C.ar    1  UNL1        0.0206
      8 C          62.7259   88.4148   11.0204 C.ar    1  UNL1        0.0203
      9 C          61.6976   87.7894   10.1253 C.ar    1  UNL1        0.0782
     10 C          63.6282   90.4820   12.3098 C.ar    1  UNL1        0.0024
     11 C          63.9452   89.8597   13.6372 C.ar    1  UNL1        0.0001
     12 C          64.9736   90.4852   14.5324 C.ar    1  UNL1        0.0009
     13 C          65.6850   91.7330   14.1000 C.ar    1  UNL1        0.0114
     14 C          65.3679   92.3553   12.7725 C.ar    1  UNL1        0.0577
     15 CL         66.0793   93.6031   12.3401 Cl      1  UNL1       -0.0822
     16 C          64.3396   91.7298   11.8774 C.ar    1  UNL1        0.0114
     17 C          62.4957   85.2568    9.8185 C.3     1  UNL1        0.1920
     18 C          63.7069   82.9683   12.8262 C.3     1  UNL1        0.1150
     19 N          63.5391   83.5148   11.4395 N.am    1  UNL1       -0.2744
     20 C          64.2466   82.8662   10.2869 C.3     1  UNL1        0.1150
     21 C          62.6636   84.7102   11.2053 C.2     1  UNL1        0.2488
     22 O          61.9560   85.3589   12.3579 O.2     1  UNL1       -0.2728
@<TRIPOS>BOND
     1    18    19    1
     2    19    20    1
     3    19    21   am
     4    21    22    2
     5    21    17    1
     6    17     1    1
     7     1     2   ar
     8     2     3   ar
     9     3     4   ar
    10     4     5   ar
    11     5     6   ar
    12     6     7   ar
    13     7    10    1
    14    10    11   ar
    15    11    12   ar
    16    12    13   ar
    17    13    14   ar
    18    14    15    1
    19    14    16   ar
    20     7     8   ar
    21     8     9   ar
    22     9     1   ar
    23     9     4   ar
    24    16    10   ar
@<TRIPOS>MOLECULE
*****
 22 24 0 0 0
SMALL
GASTEIGER

@<TRIPOS>ATOM
      1 N          61.8714   89.8644   11.6518 N.ar    1  UNL1       -0.3165
      2 C          60.9037   90.7424   10.9153 C.ar    1  UNL1        0.0779
      3 C          60.1789   89.8942    9.9126 C.ar    1  UNL1        0.0392
      4 C          60.6988   88.4920   10.0294 C.ar    1  UNL1        0.0985
      5 N          60.3548   87.2297    9.2959 N.ar    1  UNL1       -0.2423
      6 C          61.0569   85.9489    9.6373 C.ar    1  UNL1        0.0989
      7 C          62.1029   85.9304   10.7123 C.ar    1  UNL1        0.0206
      8 C          62.4469   87.1928   11.4458 C.ar    1  UNL1        0.0203
      9 C          61.7448   88.4736   11.1044 C.ar    1  UNL1        0.0782
     10 C          62.8050   84.6495   11.0537 C.ar    1  UNL1        0.0024
     11 C          63.5722   83.9103    9.9978 C.ar    1  UNL1        0.0001
     12 C          64.2743   82.6294   10.3392 C.ar    1  UNL1        0.0009
     13 C          64.2091   82.0878   11.7365 C.ar    1  UNL1        0.0114
     14 C          63.4418   82.8271   12.7924 C.ar    1  UNL1        0.0577
     15 CL         63.3766   82.2854   14.1896 Cl      1  UNL1       -0.0822
     16 C          62.7398   84.1079   12.4509 C.ar    1  UNL1        0.0114
     17 C          62.8024   90.3005   12.7441 C.3     1  UNL1        0.1920
     18 C          66.1955   92.3165   13.1596 C.3     1  UNL1        0.1150
     19 N          64.9979   91.4746   13.4867 N.am    1  UNL1       -0.2744
     20 C          64.7981   90.9650   14.8832 C.3     1  UNL1        0.1150
     21 C          64.0001   91.1424   12.4171 C.2     1  UNL1        0.2488
     22 O          64.1999   91.6521   11.0206 O.2     1  UNL1       -0.2728
@<TRIPOS>BOND
     1    18    19    1
     2    19    20    1
     3    19    21   am
     4    21    22    2
     5    21    17    1
     6    17     1    1
     7     1     2   ar
     8     2     3   ar
     9     3     4   ar
    10     4     5   ar
    11     5     6   ar
    12     6     7   ar
    13     7    10    1
    14    10    11   ar
    15    11    12   ar
    16    12    13   ar
    17    13    14   ar
    18    14    15    1
    19    14    16   ar
    20     7     8   ar
    21     8     9   ar
    22     9     1   ar
    23     9     4   ar
    24    16    10   ar
@<TRIPOS>MOLECULE
*****
 22 24 0 0 0
SMALL
GASTEIGER

@<TRIPOS>ATOM
      1 N          62.9627   82.8992   12.6312 N.ar    1  UNL1       -0.3165
      2 C          63.5659   81.7141   11.9372 C.ar    1  UNL1        0.0779
      3 C          63.7788   82.0788   10.4978 C.ar    1  UNL1        0.0392
      4 C          63.3071   83.4892   10.3023 C.ar    1  UNL1        0.0985
      5 N          63.2716   84.3773    9.0940 N.ar    1  UNL1       -0.2423
      6 C          62.7319   85.7724    9.2042 C.ar    1  UNL1        0.0989
      7 C          62.2275   86.2795   10.5228 C.ar    1  UNL1        0.0206
      8 C          62.2630   85.3914   11.7311 C.ar    1  UNL1        0.0203
      9 C          62.8027   83.9963   11.6208 C.ar    1  UNL1        0.0782
     10 C          61.6878   87.6747   10.6330 C.ar    1  UNL1        0.0024
     11 C          60.2678   87.8978   11.0617 C.ar    1  UNL1        0.0001
     12 C          59.7280   89.2931   11.1719 C.ar    1  UNL1        0.0009
     13 C          60.6083   90.4651   10.8534 C.ar    1  UNL1        0.0114
     14 C          62.0283   90.2419   10.4247 C.ar    1  UNL1        0.0577
     15 CL         62.9086   91.4140   10.1061 Cl      1  UNL1       -0.0822
     16 C          62.5680   88.8468   10.3145 C.ar    1  UNL1        0.0114
     17 C          62.5857   82.9741   14.0811 C.3     1  UNL1        0.1920
     18 C          64.0381   86.2979   15.6915 C.3     1  UNL1        0.1150
     19 N          63.9700   84.9871   14.9656 N.am    1  UNL1       -0.2744
     20 C          65.2179   84.3782   14.3981 C.3     1  UNL1        0.1150
     21 C          62.6539   84.2851   14.8071 C.2     1  UNL1        0.2488
     22 O          61.4060   84.8940   15.3745 O.2     1  UNL1       -0.2728
@<TRIPOS>BOND
     1    18    19    1
     2    19    20    1
     3    19    21   am
     4    21    22    2
     5    21    17    1
     6    17     1    1
     7     1     2   ar
     8     2     3   ar
     9     3     4   ar
    10     4     5   ar
    11     5     6   ar
    12     6     7   ar
    13     7    10    1
    14    10    11   ar
    15    11    12   ar
    16    12    13   ar
    17    13    14   ar
    18    14    15    1
    19    14    16   ar
    20     7     8   ar
    21     8     9   ar
    22     9     1   ar
    23     9     4   ar
    24    16    10   ar
@<TRIPOS>MOLECULE
*****
 22 24 0 0 0
SMALL
GASTEIGER

@<TRIPOS>ATOM
      1 N          62.8855   90.1367   13.4872 N.ar    1  UNL1       -0.3165
      2 C          62.6913   89.7547   14.9247 C.ar    1  UNL1        0.0779
      3 C          63.7511   90.4416   15.7340 C.ar    1  UNL1        0.0392
      4 C          64.6003   91.2480   14.7967 C.ar    1  UNL1        0.0985
      5 N          65.7916   92.1296   15.0282 N.ar    1  UNL1       -0.2423
      6 C          66.4478   92.8227   13.8711 C.ar    1  UNL1        0.0989
      7 C          65.9128   92.6343   12.4825 C.ar    1  UNL1        0.0206
      8 C          64.7215   91.7527   12.2510 C.ar    1  UNL1        0.0203
      9 C          64.0653   91.0596   13.4081 C.ar    1  UNL1        0.0782
     10 C          66.5691   93.3274   11.3254 C.ar    1  UNL1        0.0024
     11 C          66.3886   94.8044   11.1355 C.ar    1  UNL1        0.0001
     12 C          67.0449   95.4975    9.9784 C.ar    1  UNL1        0.0009
     13 C          67.8817   94.7137    9.0112 C.ar    1  UNL1        0.0114
     14 C          68.0622   93.2367    9.2012 C.ar    1  UNL1        0.0577
     15 CL         68.8990   92.4529    8.2340 Cl      1  UNL1       -0.0822
     16 C          67.4059   92.5436   10.3583 C.ar    1  UNL1        0.0114
     17 C          62.0470   89.6765   12.3317 C.3     1  UNL1        0.1920
     18 C          62.1677   86.8226    9.5765 C.3     1  UNL1        0.1150
     19 N          61.8556   88.1212   10.2593 N.am    1  UNL1       -0.2744
     20 C          61.0400   89.1631    9.5527 C.3     1  UNL1        0.1150
     21 C          62.3591   88.3778   11.6487 C.2     1  UNL1        0.2488
     22 O          63.1747   87.3359   12.3553 O.2     1  UNL1       -0.2728
@<TRIPOS>BOND
     1    18    19    1
     2    19    20    1
     3    19    21   am
     4    21    22    2
     5    21    17    1
     6    17     1    1
     7     1     2   ar
     8     2     3   ar
     9     3     4   ar
    10     4     5   ar
    11     5     6   ar
    12     6     7   ar
    13     7    10    1
    14    10    11   ar
    15    11    12   ar
    16    12    13   ar
    17    13    14   ar
    18    14    15    1
    19    14    16   ar
    20     7     8   ar
    21     8     9   ar
    22     9     1   ar
    23     9     4   ar
    24    16    10   ar
