@<TRIPOS>MOLECULE
*****
 29 32 0 0 0
SMALL
GASTEIGER

@<TRIPOS>ATOM
      1 C          64.1249   91.1211   12.2707 C.ar    1  UNL1        0.0785
      2 C          64.6000   90.4221   13.5100 C.ar    1  UNL1        0.0183
      3 C          64.3051   88.9649   13.7089 C.ar    1  UNL1        0.0168
      4 C          63.5353   88.2066   12.6686 C.ar    1  UNL1        0.0636
      5 C          63.0602   88.9056   11.4294 C.ar    1  UNL1        0.0462
      6 C          63.3550   90.3628   11.2305 C.ar    1  UNL1        0.1547
      7 F          62.8799   91.0617    9.9911 F       1  UNL1       -0.2028
      8 N          63.2404   86.7494   12.8676 N.am    1  UNL1       -0.2010
      9 C          62.8425   85.7763   11.7977 C.2     1  UNL1        0.2590
     10 O          62.6695   86.0895   10.3410 O.2     1  UNL1       -0.2691
     11 C          62.6479   84.4349   12.4402 C.ar    1  UNL1        0.0609
     12 C          62.2537   83.1009   11.8790 C.ar    1  UNL1        0.0048
     13 C          62.1373   81.9109   12.7847 C.ar    1  UNL1        0.0025
     14 C          62.4150   82.0550   14.2518 C.ar    1  UNL1        0.0298
     15 C          62.8091   83.3890   14.8130 C.ar    1  UNL1        0.1446
     16 F          63.0869   83.5331   16.2800 F       1  UNL1       -0.2040
     17 C          62.9256   84.5790   13.9072 C.ar    1  UNL1        0.0861
     18 C          63.2918   86.0094   14.1713 C.2     1  UNL1        0.2611
     19 O          63.6470   86.5967   15.5051 O.2     1  UNL1       -0.2691
     20 C          65.7518   93.0071   11.5318 C.2     1  UNL1        0.2840
     21 O          66.7891   91.9786   11.1907 O.2     1  UNL1       -0.2665
     22 N          64.4197   92.5783   12.0718 N.am    1  UNL1       -0.2761
     23 H          63.7389   93.2533   12.2957 H       1  UNL1        0.1553
     24 C          67.1029   94.3463    8.8802 C.3     1  UNL1        0.0345
     25 C          66.6677   95.0798   10.1140 C.ar    1  UNL1        0.0204
     26 C          66.7770   96.5578   10.3457 C.ar    1  UNL1        0.0396
     27 C          66.2236   96.8557   11.7077 C.ar    1  UNL1        0.1795
     28 O          65.7722   95.5619   12.3178 O.2     1  UNL1       -0.4461
     29 C          66.0466   94.4643   11.3329 C.ar    1  UNL1        0.1948
@<TRIPOS>BOND
     1    24    25    1
     2    25    26   ar
     3    26    27   ar
     4    27    28   ar
     5    28    29   ar
     6    29    20    1
     7    20    21    2
     8    20    22   am
     9    22     1    1
    10     1     2   ar
    11     2     3   ar
    12     3     4   ar
    13     4     8    1
    14     8     9   am
    15     9    10    2
    16     9    11    1
    17    11    12   ar
    18    12    13   ar
    19    13    14   ar
    20    14    15   ar
    21    15    16    1
    22    15    17   ar
    23    17    18    1
    24    18    19    2
    25     4     5   ar
    26     5     6   ar
    27     6     7    1
    28    29    25   ar
    29     6     1   ar
    30    18     8   am
    31    17    11   ar
    32    22    23    1
@<TRIPOS>MOLECULE
*****
 29 32 0 0 0
SMALL
GASTEIGER

@<TRIPOS>ATOM
      1 C          64.3108   91.1460   12.6315 C.ar    1  UNL1        0.0785
      2 C          63.4509   90.3974   11.6567 C.ar    1  UNL1        0.0183
      3 C          63.1516   88.9449   11.8820 C.ar    1  UNL1        0.0168
      4 C          63.7123   88.2410   13.0819 C.ar    1  UNL1        0.0636
      5 C          64.5722   88.9895   14.0567 C.ar    1  UNL1        0.0462
      6 C          64.8715   90.4420   13.8315 C.ar    1  UNL1        0.1547
      7 F          65.7314   91.1905   14.8063 F       1  UNL1       -0.2028
      8 N          63.4131   86.7885   13.3072 N.am    1  UNL1       -0.2010
      9 C          63.4236   86.0808   14.6297 C.2     1  UNL1        0.2590
     10 O          63.7353   86.7015   15.9593 O.2     1  UNL1       -0.2691
     11 C          63.0679   84.6436   14.3893 C.ar    1  UNL1        0.0609
     12 C          62.9240   83.4761   15.3200 C.ar    1  UNL1        0.0048
     13 C          62.5496   82.1279   14.7794 C.ar    1  UNL1        0.0025
     14 C          62.3192   81.9472   13.3083 C.ar    1  UNL1        0.0298
     15 C          62.4631   83.1148   12.3777 C.ar    1  UNL1        0.1446
     16 F          62.2326   82.9341   10.9065 F       1  UNL1       -0.2040
     17 C          62.8374   84.4630   12.9182 C.ar    1  UNL1        0.0861
     18 C          63.0508   85.7886   12.2494 C.2     1  UNL1        0.2611
     19 O          62.9241   86.0656   10.7807 O.2     1  UNL1       -0.2691
     20 C          65.8381   93.0020   11.6454 C.2     1  UNL1        0.2840
     21 O          66.7670   91.9531   11.1097 O.2     1  UNL1       -0.2665
     22 N          64.6100   92.5985   12.4063 N.am    1  UNL1       -0.2761
     23 H          64.0003   93.2869   12.7578 H       1  UNL1        0.1553
     24 C          67.2948   94.2754    9.0175 C.3     1  UNL1        0.0345
     25 C          66.8069   95.0398   10.2122 C.ar    1  UNL1        0.0204
     26 C          66.9029   96.5238   10.4089 C.ar    1  UNL1        0.0396
     27 C          66.2926   96.8556   11.7383 C.ar    1  UNL1        0.1795
     28 O          65.8194   95.5768   12.3633 O.2     1  UNL1       -0.4461
     29 C          66.1373   94.4545   11.4202 C.ar    1  UNL1        0.1948
@<TRIPOS>BOND
     1    24    25    1
     2    25    26   ar
     3    26    27   ar
     4    27    28   ar
     5    28    29   ar
     6    29    20    1
     7    20    21    2
     8    20    22   am
     9    22     1    1
    10     1     2   ar
    11     2     3   ar
    12     3     4   ar
    13     4     8    1
    14     8     9   am
    15     9    10    2
    16     9    11    1
    17    11    12   ar
    18    12    13   ar
    19    13    14   ar
    20    14    15   ar
    21    15    16    1
    22    15    17   ar
    23    17    18    1
    24    18    19    2
    25     4     5   ar
    26     5     6   ar
    27     6     7    1
    28    29    25   ar
    29     6     1   ar
    30    18     8   am
    31    17    11   ar
    32    22    23    1
@<TRIPOS>MOLECULE
*****
 29 32 0 0 0
SMALL
GASTEIGER

@<TRIPOS>ATOM
      1 C          62.7810   86.6145   12.9166 C.ar    1  UNL1        0.0785
      2 C          62.4179   87.3955   11.6886 C.ar    1  UNL1        0.0183
      3 C          62.9654   88.7778   11.4897 C.ar    1  UNL1        0.0168
      4 C          63.8760   89.3791   12.5189 C.ar    1  UNL1        0.0636
      5 C          64.2391   88.5981   13.7469 C.ar    1  UNL1        0.0462
      6 C          63.6916   87.2158   13.9458 C.ar    1  UNL1        0.1547
      7 F          64.0548   86.4347   15.1739 F       1  UNL1       -0.2028
      8 N          64.4235   90.7614   12.3200 N.am    1  UNL1       -0.2010
      9 C          64.2699   91.6016   11.0870 C.2     1  UNL1        0.2590
     10 O          63.5418   91.2071    9.8363 O.2     1  UNL1       -0.2691
     11 C          64.9722   92.9057   11.3242 C.ar    1  UNL1        0.0609
     12 C          65.1525   94.1199   10.4622 C.ar    1  UNL1        0.0048
     13 C          65.9205   95.2998   10.9798 C.ar    1  UNL1        0.0025
     14 C          66.5082   95.2655   12.3594 C.ar    1  UNL1        0.0298
     15 C          66.3279   94.0513   13.2215 C.ar    1  UNL1        0.1446
     16 F          66.9156   94.0170   14.6011 F       1  UNL1       -0.2040
     17 C          65.5599   92.8714   12.7038 C.ar    1  UNL1        0.0861
     18 C          65.2208   91.5461   13.3193 C.2     1  UNL1        0.2611
     19 O          65.6106   91.0864   14.6929 O.2     1  UNL1       -0.2691
     20 C          63.1545   84.0488   13.0819 C.2     1  UNL1        0.2840
     21 O          64.6230   84.2475   12.8494 O.2     1  UNL1       -0.2665
     22 N          62.2335   85.2322   13.1155 N.am    1  UNL1       -0.2761
     23 H          61.2697   85.1018   13.2681 H       1  UNL1        0.1553
     24 C          63.4215   81.5602   10.9878 C.3     1  UNL1        0.0345
     25 C          62.7297   81.5226   12.3181 C.ar    1  UNL1        0.0204
     26 C          62.0392   80.3345   12.9196 C.ar    1  UNL1        0.0396
     27 C          61.4897   80.7441   14.2539 C.ar    1  UNL1        0.1795
     28 O          61.8406   82.1853   14.4771 O.2     1  UNL1       -0.4461
     29 C          62.6070   82.6665   13.2808 C.ar    1  UNL1        0.1948
@<TRIPOS>BOND
     1    24    25    1
     2    25    26   ar
     3    26    27   ar
     4    27    28   ar
     5    28    29   ar
     6    29    20    1
     7    20    21    2
     8    20    22   am
     9    22     1    1
    10     1     2   ar
    11     2     3   ar
    12     3     4   ar
    13     4     8    1
    14     8     9   am
    15     9    10    2
    16     9    11    1
    17    11    12   ar
    18    12    13   ar
    19    13    14   ar
    20    14    15   ar
    21    15    16    1
    22    15    17   ar
    23    17    18    1
    24    18    19    2
    25     4     5   ar
    26     5     6   ar
    27     6     7    1
    28    29    25   ar
    29     6     1   ar
    30    18     8   am
    31    17    11   ar
    32    22    23    1
@<TRIPOS>MOLECULE
*****
 29 32 0 0 0
SMALL
GASTEIGER

@<TRIPOS>ATOM
      1 C          55.7256   94.8456   -1.6584 C.ar    1  UNL1        0.0785
      2 C          56.6204   95.9728   -1.2356 C.ar    1  UNL1        0.0183
      3 C          58.0235   95.6890   -0.7875 C.ar    1  UNL1        0.0168
      4 C          58.5318   94.2780   -0.7622 C.ar    1  UNL1        0.0636
      5 C          57.6370   93.1508   -1.1850 C.ar    1  UNL1        0.0462
      6 C          56.2340   93.4346   -1.6331 C.ar    1  UNL1        0.1547
      7 F          55.3392   92.3074   -2.0560 F       1  UNL1       -0.2028
      8 N          59.9349   93.9942   -0.3141 N.am    1  UNL1       -0.2010
      9 C          61.1862   94.3193   -1.0748 C.2     1  UNL1        0.2590
     10 O          61.2541   94.9853   -2.4171 O.2     1  UNL1       -0.2691
     11 C          62.3577   93.8615   -0.2575 C.ar    1  UNL1        0.0609
     12 C          63.8364   93.9198   -0.5023 C.ar    1  UNL1        0.0048
     13 C          64.7878   93.3700    0.5187 C.ar    1  UNL1        0.0025
     14 C          64.2606   92.7620    1.7845 C.ar    1  UNL1        0.0298
     15 C          62.7819   92.7037    2.0293 C.ar    1  UNL1        0.1446
     16 F          62.2546   92.0957    3.2952 F       1  UNL1       -0.2040
     17 C          61.8304   93.2535    1.0084 C.ar    1  UNL1        0.0861
     18 C          60.3331   93.3355    0.9733 C.2     1  UNL1        0.2611
     19 O          59.3981   92.8450    2.0388 O.2     1  UNL1       -0.2691
     20 C          54.0764   96.0586   -3.2580 C.2     1  UNL1        0.2840
     21 O          55.2334   96.7040   -3.9615 O.2     1  UNL1       -0.2665
     22 N          54.3225   95.1294   -2.1065 N.am    1  UNL1       -0.2761
     23 H          53.5632   94.7058   -1.6448 H       1  UNL1        0.1553
     24 C          53.0380   96.1823   -6.3493 C.3     1  UNL1        0.0345
     25 C          52.1960   96.3993   -5.1271 C.ar    1  UNL1        0.0204
     26 C          50.7289   96.7111   -5.1111 C.ar    1  UNL1        0.0396
     27 C          50.2994   96.8470   -3.6803 C.ar    1  UNL1        0.1795
     28 O          51.5012   96.6191   -2.8121 O.2     1  UNL1       -0.4461
     29 C          52.6733   96.3424   -3.7061 C.ar    1  UNL1        0.1948
@<TRIPOS>BOND
     1    24    25    1
     2    25    26   ar
     3    26    27   ar
     4    27    28   ar
     5    28    29   ar
     6    29    20    1
     7    20    21    2
     8    20    22   am
     9    22     1    1
    10     1     2   ar
    11     2     3   ar
    12     3     4   ar
    13     4     8    1
    14     8     9   am
    15     9    10    2
    16     9    11    1
    17    11    12   ar
    18    12    13   ar
    19    13    14   ar
    20    14    15   ar
    21    15    16    1
    22    15    17   ar
    23    17    18    1
    24    18    19    2
    25     4     5   ar
    26     5     6   ar
    27     6     7    1
    28    29    25   ar
    29     6     1   ar
    30    18     8   am
    31    17    11   ar
    32    22    23    1
@<TRIPOS>MOLECULE
*****
 29 32 0 0 0
SMALL
GASTEIGER

@<TRIPOS>ATOM
      1 C          55.7193   94.9182   -1.6243 C.ar    1  UNL1        0.0785
      2 C          56.6341   96.0412   -1.2345 C.ar    1  UNL1        0.0183
      3 C          58.0317   95.7457   -0.7771 C.ar    1  UNL1        0.0168
      4 C          58.5146   94.3272   -0.7096 C.ar    1  UNL1        0.0636
      5 C          57.5999   93.2042   -1.0995 C.ar    1  UNL1        0.0462
      6 C          56.2022   93.4997   -1.5568 C.ar    1  UNL1        0.1547
      7 F          55.2874   92.3766   -1.9467 F       1  UNL1       -0.2028
      8 N          59.9123   94.0317   -0.2523 N.am    1  UNL1       -0.2010
      9 C          60.3000   93.4300    1.0659 C.2     1  UNL1        0.2590
     10 O          59.3581   93.0182    2.1582 O.2     1  UNL1       -0.2691
     11 C          61.7950   93.3124    1.1001 C.ar    1  UNL1        0.0609
     12 C          62.7372   92.7920    2.1447 C.ar    1  UNL1        0.0048
     13 C          64.2158   92.8006    1.8923 C.ar    1  UNL1        0.0025
     14 C          64.7521   93.3297    0.5952 C.ar    1  UNL1        0.0298
     15 C          63.8098   93.8501   -0.4495 C.ar    1  UNL1        0.1446
     16 F          64.3462   94.3792   -1.7466 F       1  UNL1       -0.2040
     17 C          62.3313   93.8415   -0.1970 C.ar    1  UNL1        0.0861
     18 C          61.1677   94.2860   -1.0328 C.2     1  UNL1        0.2611
     19 O          61.2459   94.8805   -2.4077 O.2     1  UNL1       -0.2691
     20 C          54.0943   96.0306   -3.3190 C.2     1  UNL1        0.2840
     21 O          55.2647   96.5520   -4.0991 O.2     1  UNL1       -0.2665
     22 N          54.3216   95.2137   -2.0817 N.am    1  UNL1       -0.2761
     23 H          53.5535   94.8715   -1.5698 H       1  UNL1        0.1553
     24 C          53.0733   96.1441   -6.4165 C.3     1  UNL1        0.0345
     25 C          52.2273   96.3783   -5.2002 C.ar    1  UNL1        0.0204
     26 C          50.7635   96.7058   -5.1940 C.ar    1  UNL1        0.0396
     27 C          50.3281   96.8560   -3.7664 C.ar    1  UNL1        0.1795
     28 O          51.5228   96.6213   -2.8903 O.2     1  UNL1       -0.4461
     29 C          52.6966   96.3261   -3.7764 C.ar    1  UNL1        0.1948
@<TRIPOS>BOND
     1    24    25    1
     2    25    26   ar
     3    26    27   ar
     4    27    28   ar
     5    28    29   ar
     6    29    20    1
     7    20    21    2
     8    20    22   am
     9    22     1    1
    10     1     2   ar
    11     2     3   ar
    12     3     4   ar
    13     4     8    1
    14     8     9   am
    15     9    10    2
    16     9    11    1
    17    11    12   ar
    18    12    13   ar
    19    13    14   ar
    20    14    15   ar
    21    15    16    1
    22    15    17   ar
    23    17    18    1
    24    18    19    2
    25     4     5   ar
    26     5     6   ar
    27     6     7    1
    28    29    25   ar
    29     6     1   ar
    30    18     8   am
    31    17    11   ar
    32    22    23    1
@<TRIPOS>MOLECULE
*****
 29 32 0 0 0
SMALL
GASTEIGER

@<TRIPOS>ATOM
      1 C          60.7324   88.9181    9.0333 C.ar    1  UNL1        0.0785
      2 C          60.1952   87.5212    9.1335 C.ar    1  UNL1        0.0183
      3 C          60.8213   86.5432   10.0829 C.ar    1  UNL1        0.0168
      4 C          61.9846   86.9620   10.9321 C.ar    1  UNL1        0.0636
      5 C          62.5219   88.3588   10.8318 C.ar    1  UNL1        0.0462
      6 C          61.8958   89.3369    9.8824 C.ar    1  UNL1        0.1547
      7 F          62.4331   90.7338    9.7822 F       1  UNL1       -0.2028
      8 N          62.6107   85.9839   11.8815 N.am    1  UNL1       -0.2010
      9 C          63.3545   86.3275   13.1380 C.2     1  UNL1        0.2590
     10 O          63.6027   87.7095   13.6657 O.2     1  UNL1       -0.2691
     11 C          63.8064   85.0465   13.7742 C.ar    1  UNL1        0.0609
     12 C          64.5809   84.7672   15.0281 C.ar    1  UNL1        0.0048
     13 C          64.8908   83.3525   15.4186 C.ar    1  UNL1        0.0025
     14 C          64.4264   82.2171   14.5553 C.ar    1  UNL1        0.0298
     15 C          63.6520   82.4965   13.3015 C.ar    1  UNL1        0.1446
     16 F          63.1875   81.3611   12.4382 F       1  UNL1       -0.2040
     17 C          63.3420   83.9111   12.9109 C.ar    1  UNL1        0.0861
     18 C          62.6030   84.4905   11.7412 C.2     1  UNL1        0.2611
     19 O          61.9679   83.7129   10.6268 O.2     1  UNL1       -0.2691
     20 C          59.3756   89.4012    6.8710 C.2     1  UNL1        0.2840
     21 O          59.2708   87.9282    6.6075 O.2     1  UNL1       -0.2665
     22 N          60.1063   89.8961    8.0838 N.am    1  UNL1       -0.2761
     23 H          60.1750   90.8629    8.2567 H       1  UNL1        0.1553
     24 C          60.9617   91.2525    4.7015 C.3     1  UNL1        0.0345
     25 C          59.4786   91.2302    4.9243 C.ar    1  UNL1        0.0204
     26 C          58.4640   92.0550    4.1891 C.ar    1  UNL1        0.0396
     27 C          57.1079   91.7138    4.7319 C.ar    1  UNL1        0.1795
     28 O          57.2844   90.6782    5.8026 O.2     1  UNL1       -0.4461
     29 C          58.7495   90.3793    5.9216 C.ar    1  UNL1        0.1948
@<TRIPOS>BOND
     1    24    25    1
     2    25    26   ar
     3    26    27   ar
     4    27    28   ar
     5    28    29   ar
     6    29    20    1
     7    20    21    2
     8    20    22   am
     9    22     1    1
    10     1     2   ar
    11     2     3   ar
    12     3     4   ar
    13     4     8    1
    14     8     9   am
    15     9    10    2
    16     9    11    1
    17    11    12   ar
    18    12    13   ar
    19    13    14   ar
    20    14    15   ar
    21    15    16    1
    22    15    17   ar
    23    17    18    1
    24    18    19    2
    25     4     5   ar
    26     5     6   ar
    27     6     7    1
    28    29    25   ar
    29     6     1   ar
    30    18     8   am
    31    17    11   ar
    32    22    23    1
@<TRIPOS>MOLECULE
*****
 29 32 0 0 0
SMALL
GASTEIGER

@<TRIPOS>ATOM
      1 C          58.3864   94.5675   -0.4954 C.ar    1  UNL1        0.0785
      2 C          58.1383   95.9927   -0.8920 C.ar    1  UNL1        0.0183
      3 C          56.9627   96.3364   -1.7578 C.ar    1  UNL1        0.0168
      4 C          56.0352   95.2551   -2.2271 C.ar    1  UNL1        0.0636
      5 C          56.2833   93.8299   -1.8305 C.ar    1  UNL1        0.0462
      6 C          57.4589   93.4861   -0.9647 C.ar    1  UNL1        0.1547
      7 F          57.7070   92.0609   -0.5681 F       1  UNL1       -0.2028
      8 N          54.8595   95.5988   -3.0930 N.am    1  UNL1       -0.2010
      9 C          54.8658   95.6976   -4.5897 C.2     1  UNL1        0.2590
     10 O          56.0488   95.4698   -5.4834 O.2     1  UNL1       -0.2691
     11 C          53.4813   96.0640   -5.0359 C.ar    1  UNL1        0.0609
     12 C          52.8942   96.2978   -6.3962 C.ar    1  UNL1        0.0048
     13 C          51.4452   96.6594   -6.5356 C.ar    1  UNL1        0.0025
     14 C          50.5833   96.7872   -5.3146 C.ar    1  UNL1        0.0298
     15 C          51.1704   96.5533   -3.9543 C.ar    1  UNL1        0.1446
     16 F          50.3085   96.6811   -2.7333 F       1  UNL1       -0.2040
     17 C          52.6194   96.1917   -3.8149 C.ar    1  UNL1        0.0861
     18 C          53.4712   95.9043   -2.6142 C.2     1  UNL1        0.2611
     19 O          53.0148   95.9195   -1.1854 O.2     1  UNL1       -0.2691
     20 C          60.7633   93.5532   -0.2274 C.2     1  UNL1        0.2840
     21 O          60.7889   93.2265   -1.6912 O.2     1  UNL1       -0.2665
     22 N          59.5621   94.2237    0.3705 N.am    1  UNL1       -0.2761
     23 H          59.5453   94.4382    1.3312 H       1  UNL1        0.1553
     24 C          63.8555   94.4599   -0.7428 C.3     1  UNL1        0.0345
     25 C          63.3603   93.6263    0.4015 C.ar    1  UNL1        0.0204
     26 C          64.1994   93.0629    1.5099 C.ar    1  UNL1        0.0396
     27 C          63.2967   92.2980    2.4319 C.ar    1  UNL1        0.1795
     28 O          61.8996   92.3886    1.8933 O.2     1  UNL1       -0.4461
     29 C          61.9389   93.2095    0.6385 C.ar    1  UNL1        0.1948
@<TRIPOS>BOND
     1    24    25    1
     2    25    26   ar
     3    26    27   ar
     4    27    28   ar
     5    28    29   ar
     6    29    20    1
     7    20    21    2
     8    20    22   am
     9    22     1    1
    10     1     2   ar
    11     2     3   ar
    12     3     4   ar
    13     4     8    1
    14     8     9   am
    15     9    10    2
    16     9    11    1
    17    11    12   ar
    18    12    13   ar
    19    13    14   ar
    20    14    15   ar
    21    15    16    1
    22    15    17   ar
    23    17    18    1
    24    18    19    2
    25     4     5   ar
    26     5     6   ar
    27     6     7    1
    28    29    25   ar
    29     6     1   ar
    30    18     8   am
    31    17    11   ar
    32    22    23    1
@<TRIPOS>MOLECULE
*****
 29 32 0 0 0
SMALL
GASTEIGER

@<TRIPOS>ATOM
      1 C          60.7445   88.8782    8.9614 C.ar    1  UNL1        0.0785
      2 C          60.2424   87.4651    8.9909 C.ar    1  UNL1        0.0183
      3 C          60.8576   86.4700    9.9296 C.ar    1  UNL1        0.0168
      4 C          61.9751   86.8879   10.8387 C.ar    1  UNL1        0.0636
      5 C          62.4773   88.3010   10.8092 C.ar    1  UNL1        0.0462
      6 C          61.8620   89.2961    9.8705 C.ar    1  UNL1        0.1547
      7 F          62.3643   90.7093    9.8410 F       1  UNL1       -0.2028
      8 N          62.5904   85.8927   11.7774 N.am    1  UNL1       -0.2010
      9 C          62.6027   84.4034   11.5993 C.2     1  UNL1        0.2590
     10 O          62.0020   83.6477   10.4512 O.2     1  UNL1       -0.2691
     11 C          63.3213   83.8024   12.7708 C.ar    1  UNL1        0.0609
     12 C          63.6383   82.3816   13.1326 C.ar    1  UNL1        0.0048
     13 C          64.3870   82.0787   14.3965 C.ar    1  UNL1        0.0025
     14 C          64.8188   83.1966   15.2987 C.ar    1  UNL1        0.0298
     15 C          64.5018   84.6174   14.9369 C.ar    1  UNL1        0.1446
     16 F          64.9336   85.7353   15.8390 F       1  UNL1       -0.2040
     17 C          63.7531   84.9203   13.6729 C.ar    1  UNL1        0.0861
     18 C          63.3013   86.2121   13.0590 C.2     1  UNL1        0.2611
     19 O          63.5219   87.5828   13.6269 O.2     1  UNL1       -0.2691
     20 C          59.3483   89.3990    6.8332 C.2     1  UNL1        0.2840
     21 O          59.1826   87.9294    6.5822 O.2     1  UNL1       -0.2665
     22 N          60.1293   89.8734    8.0227 N.am    1  UNL1       -0.2761
     23 H          60.2380   90.8379    8.1874 H       1  UNL1        0.1553
     24 C          60.9584   91.2835    4.7104 C.3     1  UNL1        0.0345
     25 C          59.4732   91.2604    4.9188 C.ar    1  UNL1        0.0204
     26 C          58.4671   92.0994    4.1880 C.ar    1  UNL1        0.0396
     27 C          57.1053   91.7518    4.7121 C.ar    1  UNL1        0.1795
     28 O          57.2697   90.6979    5.7667 O.2     1  UNL1       -0.4461
     29 C          58.7330   90.3942    5.8945 C.ar    1  UNL1        0.1948
@<TRIPOS>BOND
     1    24    25    1
     2    25    26   ar
     3    26    27   ar
     4    27    28   ar
     5    28    29   ar
     6    29    20    1
     7    20    21    2
     8    20    22   am
     9    22     1    1
    10     1     2   ar
    11     2     3   ar
    12     3     4   ar
    13     4     8    1
    14     8     9   am
    15     9    10    2
    16     9    11    1
    17    11    12   ar
    18    12    13   ar
    19    13    14   ar
    20    14    15   ar
    21    15    16    1
    22    15    17   ar
    23    17    18    1
    24    18    19    2
    25     4     5   ar
    26     5     6   ar
    27     6     7    1
    28    29    25   ar
    29     6     1   ar
    30    18     8   am
    31    17    11   ar
    32    22    23    1
@<TRIPOS>MOLECULE
*****
 29 32 0 0 0
SMALL
GASTEIGER

@<TRIPOS>ATOM
      1 C          63.7398   89.8771   12.4771 C.ar    1  UNL1        0.0785
      2 C          64.2507   89.1714   13.6982 C.ar    1  UNL1        0.0183
      3 C          64.0056   87.7020   13.8728 C.ar    1  UNL1        0.0168
      4 C          63.2496   86.9381   12.8264 C.ar    1  UNL1        0.0636
      5 C          62.7387   87.6438   11.6054 C.ar    1  UNL1        0.0462
      6 C          62.9838   89.1133   11.4307 C.ar    1  UNL1        0.1547
      7 F          62.4729   89.8190   10.2096 F       1  UNL1       -0.2028
      8 N          63.0044   85.4686   13.0010 N.am    1  UNL1       -0.2010
      9 C          62.6095   84.7862   14.2771 C.2     1  UNL1        0.2590
     10 O          62.3903   85.4534   15.6025 O.2     1  UNL1       -0.2691
     11 C          62.4721   83.3193   13.9950 C.ar    1  UNL1        0.0609
     12 C          62.1048   82.1588   14.8714 C.ar    1  UNL1        0.0048
     13 C          62.0476   80.7742   14.2975 C.ar    1  UNL1        0.0025
     14 C          62.3577   80.5501   12.8471 C.ar    1  UNL1        0.0298
     15 C          62.7250   81.7106   11.9707 C.ar    1  UNL1        0.1446
     16 F          63.0351   81.4865   10.5203 F       1  UNL1       -0.2040
     17 C          62.7822   83.0952   12.5446 C.ar    1  UNL1        0.0861
     18 C          63.1112   84.4236   11.9303 C.2     1  UNL1        0.2611
     19 O          63.4819   84.6645   10.4970 O.2     1  UNL1       -0.2691
     20 C          65.3804   91.8898   12.3899 C.2     1  UNL1        0.2840
     21 O          66.5308   90.9635   12.6520 O.2     1  UNL1       -0.2665
     22 N          63.9850   91.3466   12.3025 N.am    1  UNL1       -0.2761
     23 H          63.2300   91.9546   12.1304 H       1  UNL1        0.1553
     24 C          66.8127   93.8663   14.5559 C.3     1  UNL1        0.0345
     25 C          66.2839   94.2678   13.2110 C.ar    1  UNL1        0.0204
     26 C          66.3206   95.6483   12.6253 C.ar    1  UNL1        0.0396
     27 C          65.6849   95.5930   11.2678 C.ar    1  UNL1        0.1795
     28 O          65.2554   94.1783   11.0144 O.2     1  UNL1       -0.4461
     29 C          65.6255   93.3593   12.2153 C.ar    1  UNL1        0.1948
@<TRIPOS>BOND
     1    24    25    1
     2    25    26   ar
     3    26    27   ar
     4    27    28   ar
     5    28    29   ar
     6    29    20    1
     7    20    21    2
     8    20    22   am
     9    22     1    1
    10     1     2   ar
    11     2     3   ar
    12     3     4   ar
    13     4     8    1
    14     8     9   am
    15     9    10    2
    16     9    11    1
    17    11    12   ar
    18    12    13   ar
    19    13    14   ar
    20    14    15   ar
    21    15    16    1
    22    15    17   ar
    23    17    18    1
    24    18    19    2
    25     4     5   ar
    26     5     6   ar
    27     6     7    1
    28    29    25   ar
    29     6     1   ar
    30    18     8   am
    31    17    11   ar
    32    22    23    1
