@<TRIPOS>MOLECULE
*****
 30 34 0 0 0
SMALL
GASTEIGER

@<TRIPOS>ATOM
      1 O          64.3966   92.7417   10.9391 O.2     1  UNL1       -0.2526
      2 C          64.9709   92.3326   12.2631 C.2     1  UNL1        0.3039
      3 N          65.8563   93.2771   13.0206 N.am    1  UNL1       -0.2901
      4 N          64.6598   90.9789   12.8295 N.am    1  UNL1       -0.2642
      5 C          63.7744   90.0344   12.0719 C.3     1  UNL1        0.0954
      6 C          63.4632   88.6807   12.6382 C.3     1  UNL1        0.0309
      7 C          64.0376   88.2716   13.9622 C.3     1  UNL1        0.0827
      8 C          64.9229   89.2161   14.7198 C.3     1  UNL1        0.0309
      9 C          65.2340   90.5698   14.1534 C.3     1  UNL1        0.0954
     10 H          66.2332   93.0086   13.8896 H       1  UNL1        0.1509
     11 C          63.7264   86.9179   14.5286 C.ar    1  UNL1        0.2362
     12 N          63.5272   85.6571   13.7408 N.ar    1  UNL1       -0.1907
     13 C          63.2376   84.5473   14.7075 C.ar    1  UNL1        0.2048
     14 N          63.2577   85.1223   16.0928 N.ar    1  UNL1       -0.0560
     15 O          63.5599   86.5874   15.9822 O.2     1  UNL1       -0.3370
     16 C          62.9740   83.1142   14.3515 C.ar    1  UNL1        0.0582
     17 C          61.5979   82.5410   14.5177 C.ar    1  UNL1        0.0063
     18 C          61.3342   81.1079   14.1617 C.ar    1  UNL1        0.0208
     19 C          62.4468   80.2481   13.6393 C.ar    1  UNL1        0.0989
     20 N          63.8229   80.8213   13.4730 N.ar    1  UNL1       -0.2422
     21 C          64.0865   82.2544   13.8291 C.ar    1  UNL1        0.1020
     22 C          66.1674   94.6308   12.4543 C.3     1  UNL1        0.0774
     23 C          66.5733   96.0608   12.6548 C.3     1  UNL1        0.0259
     24 C          66.3004   95.5453   11.2728 C.3     1  UNL1        0.0420
     25 C          66.2196   95.7757    9.7928 C.ar    1  UNL1       -0.0208
     26 C          67.2371   95.1570    8.8808 C.ar    1  UNL1       -0.0042
     27 C          67.1562   95.3874    7.4008 C.ar    1  UNL1       -0.0003
     28 C          66.0579   96.2366    6.8329 C.ar    1  UNL1       -0.0000
     29 C          65.0404   96.8553    7.7449 C.ar    1  UNL1       -0.0003
     30 C          65.1212   96.6249    9.2248 C.ar    1  UNL1       -0.0042
@<TRIPOS>BOND
     1     1     2    2
     2     2     3   am
     3     3    22    1
     4    22    23    1
     5    23    24    1
     6    24    25    1
     7    25    26   ar
     8    26    27   ar
     9    27    28   ar
    10    28    29   ar
    11    29    30   ar
    12     2     4   am
    13     4     5    1
    14     5     6    1
    15     6     7    1
    16     7    11    1
    17    11    12   ar
    18    12    13   ar
    19    13    16    1
    20    16    17   ar
    21    17    18   ar
    22    18    19   ar
    23    19    20   ar
    24    20    21   ar
    25    13    14   ar
    26    14    15   ar
    27     7     8    1
    28     8     9    1
    29    24    22    1
    30    30    25   ar
    31     9     4    1
    32    15    11   ar
    33    21    16   ar
    34     3    10    1
@<TRIPOS>MOLECULE
*****
 30 34 0 0 0
SMALL
GASTEIGER

@<TRIPOS>ATOM
      1 O          64.2320   86.4690   16.2295 O.2     1  UNL1       -0.2526
      2 C          63.8534   86.9167   14.8488 C.2     1  UNL1        0.3039
      3 N          63.0879   85.9960   13.9453 N.am    1  UNL1       -0.2901
      4 N          64.2403   88.2851   14.3716 N.am    1  UNL1       -0.2642
      5 C          65.0058   89.2058   15.2751 C.3     1  UNL1        0.0954
      6 C          65.3928   90.5742   14.7979 C.3     1  UNL1        0.0309
      7 C          65.0142   91.0219   13.4172 C.3     1  UNL1        0.0827
      8 C          64.2487   90.1012   12.5138 C.3     1  UNL1        0.0309
      9 C          63.8617   88.7328   12.9910 C.3     1  UNL1        0.0954
     10 H          62.8394   86.2898   13.0392 H       1  UNL1        0.1509
     11 C          65.4011   92.3903   12.9400 C.ar    1  UNL1        0.2362
     12 N          65.4664   92.8398   11.5105 N.ar    1  UNL1       -0.1907
     13 C          65.8963   94.2768   11.4955 C.ar    1  UNL1        0.2048
     14 N          66.0967   94.7155   12.9159 N.ar    1  UNL1       -0.0560
     15 O          65.7907   93.5496   13.8086 O.2     1  UNL1       -0.3370
     16 C          66.0916   95.1261   10.2746 C.ar    1  UNL1        0.0582
     17 C          64.9790   96.0065    9.7877 C.ar    1  UNL1        0.0063
     18 C          65.1741   96.8558    8.5668 C.ar    1  UNL1        0.0208
     19 C          66.4819   96.8246    7.8327 C.ar    1  UNL1        0.0989
     20 N          67.5944   95.9441    8.3196 N.ar    1  UNL1       -0.2422
     21 C          67.3992   95.0948    9.5406 C.ar    1  UNL1        0.1020
     22 C          62.7009   84.6275   14.4225 C.3     1  UNL1        0.0774
     23 C          62.2061   83.7236   15.5125 C.3     1  UNL1        0.0259
     24 C          62.5256   83.1613   14.1591 C.3     1  UNL1        0.0420
     25 C          62.6088   81.9901   13.2255 C.ar    1  UNL1       -0.0208
     26 C          62.2366   80.6192   13.7071 C.ar    1  UNL1       -0.0042
     27 C          62.3198   79.4481   12.7736 C.ar    1  UNL1       -0.0003
     28 C          62.7753   79.6479   11.3584 C.ar    1  UNL1       -0.0000
     29 C          63.1476   81.0188   10.8768 C.ar    1  UNL1       -0.0003
     30 C          63.0643   82.1899   11.8104 C.ar    1  UNL1       -0.0042
@<TRIPOS>BOND
     1     1     2    2
     2     2     3   am
     3     3    22    1
     4    22    23    1
     5    23    24    1
     6    24    25    1
     7    25    26   ar
     8    26    27   ar
     9    27    28   ar
    10    28    29   ar
    11    29    30   ar
    12     2     4   am
    13     4     5    1
    14     5     6    1
    15     6     7    1
    16     7    11    1
    17    11    12   ar
    18    12    13   ar
    19    13    16    1
    20    16    17   ar
    21    17    18   ar
    22    18    19   ar
    23    19    20   ar
    24    20    21   ar
    25    13    14   ar
    26    14    15   ar
    27     7     8    1
    28     8     9    1
    29    24    22    1
    30    30    25   ar
    31     9     4    1
    32    15    11   ar
    33    21    16   ar
    34     3    10    1
@<TRIPOS>MOLECULE
*****
 30 34 0 0 0
SMALL
GASTEIGER

@<TRIPOS>ATOM
      1 O          61.2735   85.0442   10.3843 O.2     1  UNL1       -0.2526
      2 C          61.5462   86.5181   10.4432 C.2     1  UNL1        0.3039
      3 N          62.3945   87.0804   11.5451 N.am    1  UNL1       -0.2901
      4 N          60.9706   87.4296    9.4003 N.am    1  UNL1       -0.2642
      5 C          60.1222   86.8673    8.2983 C.3     1  UNL1        0.0954
      6 C          59.5466   87.7788    7.2554 C.3     1  UNL1        0.0309
      7 C          59.8194   89.2527    7.3143 C.3     1  UNL1        0.0827
      8 C          60.6677   89.8149    8.4162 C.3     1  UNL1        0.0309
      9 C          61.2433   88.9034    9.4592 C.3     1  UNL1        0.0954
     10 H          62.5735   88.0477   11.5838 H       1  UNL1        0.1509
     11 C          59.2438   90.1642    6.2713 C.ar    1  UNL1        0.2362
     12 N          60.0255   90.9800    5.2848 N.ar    1  UNL1       -0.1907
     13 C          59.0503   91.7400    4.4355 C.ar    1  UNL1        0.2048
     14 N          57.6657   91.3938    4.8972 N.ar    1  UNL1       -0.0560
     15 O          57.7853   90.4200    6.0318 O.2     1  UNL1       -0.3370
     16 C          59.3984   92.6808    3.3204 C.ar    1  UNL1        0.0582
     17 C          59.2964   92.2249    1.8950 C.ar    1  UNL1        0.0063
     18 C          59.6446   93.1657    0.7798 C.ar    1  UNL1        0.0208
     19 C          60.0948   94.5625    1.0900 C.ar    1  UNL1        0.0989
     20 N          60.1969   95.0184    2.5154 N.ar    1  UNL1       -0.2422
     21 C          59.8487   94.0775    3.6306 C.ar    1  UNL1        0.1020
     22 C          62.9701   86.1688   12.5881 C.3     1  UNL1        0.0774
     23 C          63.7933   85.9671   13.8257 C.3     1  UNL1        0.0259
     24 C          63.1440   84.7918   13.1569 C.3     1  UNL1        0.0420
     25 C          62.8695   83.3183   13.0992 C.ar    1  UNL1       -0.0208
     26 C          62.2544   82.6232   14.2775 C.ar    1  UNL1       -0.0042
     27 C          61.9799   81.1497   14.2197 C.ar    1  UNL1       -0.0003
     28 C          62.3205   80.3712   12.9836 C.ar    1  UNL1       -0.0000
     29 C          62.9356   81.0663   11.8053 C.ar    1  UNL1       -0.0003
     30 C          63.2101   82.5398   11.8631 C.ar    1  UNL1       -0.0042
@<TRIPOS>BOND
     1     1     2    2
     2     2     3   am
     3     3    22    1
     4    22    23    1
     5    23    24    1
     6    24    25    1
     7    25    26   ar
     8    26    27   ar
     9    27    28   ar
    10    28    29   ar
    11    29    30   ar
    12     2     4   am
    13     4     5    1
    14     5     6    1
    15     6     7    1
    16     7    11    1
    17    11    12   ar
    18    12    13   ar
    19    13    16    1
    20    16    17   ar
    21    17    18   ar
    22    18    19   ar
    23    19    20   ar
    24    20    21   ar
    25    13    14   ar
    26    14    15   ar
    27     7     8    1
    28     8     9    1
    29    24    22    1
    30    30    25   ar
    31     9     4    1
    32    15    11   ar
    33    21    16   ar
    34     3    10    1
@<TRIPOS>MOLECULE
*****
 30 34 0 0 0
SMALL
GASTEIGER

@<TRIPOS>ATOM
      1 O          58.1862   88.8873    5.9069 O.2     1  UNL1       -0.2526
      2 C          59.3488   89.4699    6.6546 C.2     1  UNL1        0.3039
      3 N          59.8683   90.8296    6.2921 N.am    1  UNL1       -0.2901
      4 N          59.9919   88.6928    7.7648 N.am    1  UNL1       -0.2642
      5 C          59.4724   87.3330    8.1272 C.3     1  UNL1        0.0954
      6 C          60.1155   86.5559    9.2374 C.3     1  UNL1        0.0309
      7 C          61.2781   87.1385    9.9851 C.3     1  UNL1        0.0827
      8 C          61.7976   88.4981    9.6226 C.3     1  UNL1        0.0309
      9 C          61.1545   89.2753    8.5125 C.3     1  UNL1        0.0954
     10 H          60.6313   91.2119    6.7829 H       1  UNL1        0.1509
     11 C          61.9212   86.3613   11.0953 C.ar    1  UNL1        0.2362
     12 N          61.9376   84.8676   11.2314 N.ar    1  UNL1       -0.1907
     13 C          62.6874   84.5245   12.4845 C.ar    1  UNL1        0.2048
     14 N          63.1344   85.8062   13.1228 N.ar    1  UNL1       -0.0560
     15 O          62.6609   86.9414   12.2642 O.2     1  UNL1       -0.3370
     16 C          62.9449   83.1424   13.0074 C.ar    1  UNL1        0.0582
     17 C          62.4865   81.9472   12.2255 C.ar    1  UNL1        0.0063
     18 C          62.7439   80.5651   12.7484 C.ar    1  UNL1        0.0208
     19 C          63.4599   80.3781   14.0532 C.ar    1  UNL1        0.0989
     20 N          63.9183   81.5733   14.8350 N.ar    1  UNL1       -0.2422
     21 C          63.6608   82.9555   14.3121 C.ar    1  UNL1        0.1020
     22 C          59.2252   91.6067    5.1820 C.3     1  UNL1        0.0774
     23 C          58.0136   92.2601    4.5860 C.3     1  UNL1        0.0259
     24 C          59.3229   92.2994    3.8551 C.3     1  UNL1        0.0420
     25 C          60.1353   92.7220    2.6670 C.ar    1  UNL1       -0.0208
     26 C          61.6297   92.5963    2.6972 C.ar    1  UNL1       -0.0042
     27 C          62.4419   93.0189    1.5091 C.ar    1  UNL1       -0.0003
     28 C          61.7599   93.5673    0.2909 C.ar    1  UNL1       -0.0000
     29 C          60.2655   93.6930    0.2608 C.ar    1  UNL1       -0.0003
     30 C          59.4532   93.2704    1.4488 C.ar    1  UNL1       -0.0042
@<TRIPOS>BOND
     1     1     2    2
     2     2     3   am
     3     3    22    1
     4    22    23    1
     5    23    24    1
     6    24    25    1
     7    25    26   ar
     8    26    27   ar
     9    27    28   ar
    10    28    29   ar
    11    29    30   ar
    12     2     4   am
    13     4     5    1
    14     5     6    1
    15     6     7    1
    16     7    11    1
    17    11    12   ar
    18    12    13   ar
    19    13    16    1
    20    16    17   ar
    21    17    18   ar
    22    18    19   ar
    23    19    20   ar
    24    20    21   ar
    25    13    14   ar
    26    14    15   ar
    27     7     8    1
    28     8     9    1
    29    24    22    1
    30    30    25   ar
    31     9     4    1
    32    15    11   ar
    33    21    16   ar
    34     3    10    1
@<TRIPOS>MOLECULE
*****
 30 34 0 0 0
SMALL
GASTEIGER

@<TRIPOS>ATOM
      1 O          61.3490   95.2067   -1.3032 O.2     1  UNL1       -0.2526
      2 C          62.2070   94.4346   -0.3452 C.2     1  UNL1        0.3039
      3 N          63.6918   94.3741   -0.5495 N.am    1  UNL1       -0.2901
      4 N          61.5802   93.7231    0.8170 N.am    1  UNL1       -0.2642
      5 C          60.0953   93.7836    1.0213 C.3     1  UNL1        0.0954
      6 C          59.4685   93.0721    2.1835 C.3     1  UNL1        0.0309
      7 C          60.3266   92.3000    3.1415 C.3     1  UNL1        0.0827
      8 C          61.8113   92.2394    2.9372 C.3     1  UNL1        0.0309
      9 C          62.4381   92.9510    1.7750 C.3     1  UNL1        0.0954
     10 H          64.2549   93.8673    0.0792 H       1  UNL1        0.1509
     11 C          59.6997   91.5884    4.3037 C.ar    1  UNL1        0.2362
     12 N          60.3753   90.5868    5.1928 N.ar    1  UNL1       -0.1907
     13 C          59.3804   90.1329    6.2195 C.ar    1  UNL1        0.2048
     14 N          58.0899   90.8540    5.9650 N.ar    1  UNL1       -0.0560
     15 O          58.2873   91.7536    4.7810 O.2     1  UNL1       -0.3370
     16 C          59.6318   89.1334    7.3093 C.ar    1  UNL1        0.0582
     17 C          59.2597   87.6944    7.1076 C.ar    1  UNL1        0.0063
     18 C          59.5111   86.6947    8.1974 C.ar    1  UNL1        0.0208
     19 C          60.1346   87.1342    9.4889 C.ar    1  UNL1        0.0989
     20 N          60.5067   88.5733    9.6906 N.ar    1  UNL1       -0.2422
     21 C          60.2553   89.5729    8.6008 C.ar    1  UNL1        0.1020
     22 C          64.3186   95.0856   -1.7118 C.3     1  UNL1        0.0774
     23 C          65.0044   96.2929   -2.2793 C.3     1  UNL1        0.0259
     24 C          64.7184   95.1108   -3.1572 C.3     1  UNL1        0.0420
     25 C          64.7841   94.4428   -4.4987 C.ar    1  UNL1       -0.0208
     26 C          64.9916   95.2644   -5.7364 C.ar    1  UNL1       -0.0042
     27 C          65.0572   94.5964   -7.0778 C.ar    1  UNL1       -0.0003
     28 C          64.9154   93.1067   -7.1815 C.ar    1  UNL1       -0.0000
     29 C          64.7079   92.2851   -5.9439 C.ar    1  UNL1       -0.0003
     30 C          64.6422   92.9531   -4.6025 C.ar    1  UNL1       -0.0042
@<TRIPOS>BOND
     1     1     2    2
     2     2     3   am
     3     3    22    1
     4    22    23    1
     5    23    24    1
     6    24    25    1
     7    25    26   ar
     8    26    27   ar
     9    27    28   ar
    10    28    29   ar
    11    29    30   ar
    12     2     4   am
    13     4     5    1
    14     5     6    1
    15     6     7    1
    16     7    11    1
    17    11    12   ar
    18    12    13   ar
    19    13    16    1
    20    16    17   ar
    21    17    18   ar
    22    18    19   ar
    23    19    20   ar
    24    20    21   ar
    25    13    14   ar
    26    14    15   ar
    27     7     8    1
    28     8     9    1
    29    24    22    1
    30    30    25   ar
    31     9     4    1
    32    15    11   ar
    33    21    16   ar
    34     3    10    1
@<TRIPOS>MOLECULE
*****
 30 34 0 0 0
SMALL
GASTEIGER

@<TRIPOS>ATOM
      1 O          64.0890   91.6917   11.9514 O.2     1  UNL1       -0.2526
      2 C          64.6687   90.8207   13.0263 C.2     1  UNL1        0.3039
      3 N          65.6680   91.3857   13.9917 N.am    1  UNL1       -0.2901
      4 N          64.2491   89.3848   13.1356 N.am    1  UNL1       -0.2642
      5 C          63.2497   88.8198   12.1701 C.3     1  UNL1        0.0954
      6 C          62.8301   87.3839   12.2795 C.3     1  UNL1        0.0309
      7 C          63.4098   86.5129   13.3544 C.3     1  UNL1        0.0827
      8 C          64.4091   87.0778   14.3198 C.3     1  UNL1        0.0309
      9 C          64.8287   88.5138   14.2105 C.3     1  UNL1        0.0954
     10 H          66.0485   90.8140   14.6972 H       1  UNL1        0.1509
     11 C          62.9902   85.0769   13.4637 C.ar    1  UNL1        0.2362
     12 N          63.2450   84.0040   12.4469 N.ar    1  UNL1       -0.1907
     13 C          62.6544   82.7257   12.9639 C.ar    1  UNL1        0.2048
     14 N          62.0345   83.0086   14.3002 N.ar    1  UNL1       -0.0560
     15 O          62.2420   84.4617   14.6091 O.2     1  UNL1       -0.3370
     16 C          62.6792   81.3977   12.2669 C.ar    1  UNL1        0.0582
     17 C          62.3917   80.1420   13.0352 C.ar    1  UNL1        0.0063
     18 C          62.4166   78.8139   12.3383 C.ar    1  UNL1        0.0208
     19 C          62.7290   78.7417   10.8730 C.ar    1  UNL1        0.0989
     20 N          63.0165   79.9974   10.1046 N.ar    1  UNL1       -0.2422
     21 C          62.9916   81.3255   10.8016 C.ar    1  UNL1        0.1020
     22 C          66.0876   92.8216   13.8824 C.3     1  UNL1        0.0774
     23 C          66.5388   94.0962   14.5318 C.3     1  UNL1        0.0259
     24 C          66.3632   94.0341   13.0435 C.3     1  UNL1        0.0420
     25 C          66.4209   94.6984   11.6997 C.ar    1  UNL1       -0.0208
     26 C          66.0721   96.1510   11.5656 C.ar    1  UNL1       -0.0042
     27 C          66.1298   96.8152   10.2219 C.ar    1  UNL1       -0.0003
     28 C          66.5364   96.0267    9.0124 C.ar    1  UNL1       -0.0000
     29 C          66.8853   94.5740    9.1465 C.ar    1  UNL1       -0.0003
     30 C          66.8276   93.9099   10.4902 C.ar    1  UNL1       -0.0042
@<TRIPOS>BOND
     1     1     2    2
     2     2     3   am
     3     3    22    1
     4    22    23    1
     5    23    24    1
     6    24    25    1
     7    25    26   ar
     8    26    27   ar
     9    27    28   ar
    10    28    29   ar
    11    29    30   ar
    12     2     4   am
    13     4     5    1
    14     5     6    1
    15     6     7    1
    16     7    11    1
    17    11    12   ar
    18    12    13   ar
    19    13    16    1
    20    16    17   ar
    21    17    18   ar
    22    18    19   ar
    23    19    20   ar
    24    20    21   ar
    25    13    14   ar
    26    14    15   ar
    27     7     8    1
    28     8     9    1
    29    24    22    1
    30    30    25   ar
    31     9     4    1
    32    15    11   ar
    33    21    16   ar
    34     3    10    1
@<TRIPOS>MOLECULE
*****
 30 34 0 0 0
SMALL
GASTEIGER

@<TRIPOS>ATOM
      1 O          59.4203   94.5208    1.5835 O.2     1  UNL1       -0.2526
      2 C          60.5616   93.6969    2.1019 C.2     1  UNL1        0.3039
      3 N          61.9400   93.8889    1.5425 N.am    1  UNL1       -0.2901
      4 N          60.3244   92.6811    3.1797 N.am    1  UNL1       -0.2642
      5 C          58.9459   92.4891    3.7392 C.3     1  UNL1        0.0954
      6 C          58.7087   91.4732    4.8170 C.3     1  UNL1        0.0309
      7 C          59.8500   90.6493    5.3354 C.3     1  UNL1        0.0827
      8 C          61.2284   90.8414    4.7760 C.3     1  UNL1        0.0309
      9 C          61.4656   91.8572    3.6982 C.3     1  UNL1        0.0954
     10 H          62.6891   93.3482    1.8827 H       1  UNL1        0.1509
     11 C          59.6128   89.6335    6.4133 C.ar    1  UNL1        0.2362
     12 N          60.6547   89.0545    7.3239 N.ar    1  UNL1       -0.1907
     13 C          59.9779   88.0814    8.2432 C.ar    1  UNL1        0.2048
     14 N          58.5177   88.0590    7.9007 N.ar    1  UNL1       -0.0560
     15 O          58.2920   89.0183    6.7698 O.2     1  UNL1       -0.3370
     16 C          60.6443   87.2727    9.3165 C.ar    1  UNL1        0.0582
     17 C          61.5131   86.1072    8.9469 C.ar    1  UNL1        0.0063
     18 C          62.1796   85.2984   10.0201 C.ar    1  UNL1        0.0208
     19 C          61.9772   85.6553   11.4629 C.ar    1  UNL1        0.0989
     20 N          61.1084   86.8209   11.8325 N.ar    1  UNL1       -0.2422
     21 C          60.4419   87.6296   10.7592 C.ar    1  UNL1        0.1020
     22 C          62.1772   94.9048    0.4646 C.3     1  UNL1        0.0774
     23 C          62.0596   96.3111   -0.0436 C.3     1  UNL1        0.0259
     24 C          62.7057   95.2579   -0.8941 C.3     1  UNL1        0.0420
     25 C          63.3838   94.8537   -2.1695 C.ar    1  UNL1       -0.0208
     26 C          64.0336   95.8921   -3.0352 C.ar    1  UNL1       -0.0042
     27 C          64.7117   95.4878   -4.3106 C.ar    1  UNL1       -0.0003
     28 C          64.7400   94.0452   -4.7204 C.ar    1  UNL1       -0.0000
     29 C          64.0903   93.0067   -3.8547 C.ar    1  UNL1       -0.0003
     30 C          63.4122   93.4110   -2.5793 C.ar    1  UNL1       -0.0042
@<TRIPOS>BOND
     1     1     2    2
     2     2     3   am
     3     3    22    1
     4    22    23    1
     5    23    24    1
     6    24    25    1
     7    25    26   ar
     8    26    27   ar
     9    27    28   ar
    10    28    29   ar
    11    29    30   ar
    12     2     4   am
    13     4     5    1
    14     5     6    1
    15     6     7    1
    16     7    11    1
    17    11    12   ar
    18    12    13   ar
    19    13    16    1
    20    16    17   ar
    21    17    18   ar
    22    18    19   ar
    23    19    20   ar
    24    20    21   ar
    25    13    14   ar
    26    14    15   ar
    27     7     8    1
    28     8     9    1
    29    24    22    1
    30    30    25   ar
    31     9     4    1
    32    15    11   ar
    33    21    16   ar
    34     3    10    1
@<TRIPOS>MOLECULE
*****
 30 34 0 0 0
SMALL
GASTEIGER

@<TRIPOS>ATOM
      1 O          64.0052   84.5802   15.5337 O.2     1  UNL1       -0.2526
      2 C          63.5133   85.2927   14.3087 C.2     1  UNL1        0.3039
      3 N          62.6569   84.5683   13.3129 N.am    1  UNL1       -0.2901
      4 N          63.8780   86.7295   14.0796 N.am    1  UNL1       -0.2642
      5 C          64.7346   87.4539   15.0755 C.3     1  UNL1        0.0954
      6 C          65.0993   88.8907   14.8464 C.3     1  UNL1        0.0309
      7 C          64.6074   89.6032   13.6215 C.3     1  UNL1        0.0827
      8 C          63.7510   88.8789   12.6256 C.3     1  UNL1        0.0309
      9 C          63.3863   87.4420   12.8547 C.3     1  UNL1        0.0954
     10 H          62.3341   85.0360   12.5089 H       1  UNL1        0.1509
     11 C          64.9721   91.0401   13.3924 C.ar    1  UNL1        0.2362
     12 N          65.3374   91.6578   12.0752 N.ar    1  UNL1       -0.1907
     13 C          65.6266   93.1110   12.3090 C.ar    1  UNL1        0.2048
     14 N          65.4401   93.3914   13.7707 N.ar    1  UNL1       -0.0560
     15 O          65.0356   92.1115   14.4402 O.2     1  UNL1       -0.3370
     16 C          66.0313   94.1086   11.2645 C.ar    1  UNL1        0.0582
     17 C          66.1479   95.5611   11.6200 C.ar    1  UNL1        0.0063
     18 C          66.5526   96.5588   10.5756 C.ar    1  UNL1        0.0208
     19 C          66.8407   96.1039    9.1756 C.ar    1  UNL1        0.0989
     20 N          66.7242   94.6513    8.8201 N.ar    1  UNL1       -0.2422
     21 C          66.3195   93.6536    9.8646 C.ar    1  UNL1        0.1020
     22 C          62.2922   83.1315   13.5419 C.3     1  UNL1        0.0774
     23 C          61.7259   82.0600   14.4258 C.3     1  UNL1        0.0259
     24 C          62.2268   81.7143   13.0548 C.3     1  UNL1        0.0420
     25 C          62.4783   80.6965   11.9820 C.ar    1  UNL1       -0.0208
     26 C          62.4086   79.2334   12.3051 C.ar    1  UNL1       -0.0042
     27 C          62.6601   78.2156   11.2324 C.ar    1  UNL1       -0.0003
     28 C          62.9814   78.6610    9.8365 C.ar    1  UNL1       -0.0000
     29 C          63.0511   80.1241    9.5134 C.ar    1  UNL1       -0.0003
     30 C          62.7996   81.1418   10.5862 C.ar    1  UNL1       -0.0042
@<TRIPOS>BOND
     1     1     2    2
     2     2     3   am
     3     3    22    1
     4    22    23    1
     5    23    24    1
     6    24    25    1
     7    25    26   ar
     8    26    27   ar
     9    27    28   ar
    10    28    29   ar
    11    29    30   ar
    12     2     4   am
    13     4     5    1
    14     5     6    1
    15     6     7    1
    16     7    11    1
    17    11    12   ar
    18    12    13   ar
    19    13    16    1
    20    16    17   ar
    21    17    18   ar
    22    18    19   ar
    23    19    20   ar
    24    20    21   ar
    25    13    14   ar
    26    14    15   ar
    27     7     8    1
    28     8     9    1
    29    24    22    1
    30    30    25   ar
    31     9     4    1
    32    15    11   ar
    33    21    16   ar
    34     3    10    1
@<TRIPOS>MOLECULE
*****
 30 34 0 0 0
SMALL
GASTEIGER

@<TRIPOS>ATOM
      1 O          63.4188   94.0674    0.1107 O.2     1  UNL1       -0.2526
      2 C          61.9440   94.0928    0.3832 C.2     1  UNL1        0.3039
      3 N          61.0318   94.8918   -0.4996 N.am    1  UNL1       -0.2901
      4 N          61.3814   93.3192    1.5387 N.am    1  UNL1       -0.2642
      5 C          62.2936   92.5202    2.4215 C.3     1  UNL1        0.0954
      6 C          61.7310   91.7466    3.5770 C.3     1  UNL1        0.0309
      7 C          60.2562   91.7721    3.8495 C.3     1  UNL1        0.0827
      8 C          59.3440   92.5711    2.9667 C.3     1  UNL1        0.0309
      9 C          59.9066   93.3447    1.8112 C.3     1  UNL1        0.0954
     10 H          60.0638   94.9085   -0.3207 H       1  UNL1        0.1509
     11 C          59.6936   90.9985    5.0050 C.ar    1  UNL1        0.2362
     12 N          60.4877   90.2780    6.0539 N.ar    1  UNL1       -0.1907
     13 C          59.5230   89.6438    7.0116 C.ar    1  UNL1        0.2048
     14 N          58.1326   89.9722    6.5545 N.ar    1  UNL1       -0.0560
     15 O          58.2381   90.8095    5.3144 O.2     1  UNL1       -0.3370
     16 C          59.8851   88.8249    8.2150 C.ar    1  UNL1        0.0582
     17 C          60.0791   89.4912    9.5448 C.ar    1  UNL1        0.0063
     18 C          60.4413   88.6724   10.7483 C.ar    1  UNL1        0.0208
     19 C          60.6094   87.1872   10.6220 C.ar    1  UNL1        0.0989
     20 N          60.4154   86.5209    9.2922 N.ar    1  UNL1       -0.2422
     21 C          60.0532   87.3398    8.0886 C.ar    1  UNL1        0.1020
     22 C          61.5944   95.6654   -1.6551 C.3     1  UNL1        0.0774
     23 C          62.3473   96.8515   -2.1808 C.3     1  UNL1        0.0259
     24 C          61.8159   95.8193   -3.1306 C.3     1  UNL1        0.0420
     25 C          61.6370   95.3121   -4.5309 C.ar    1  UNL1       -0.0208
     26 C          60.2816   95.3433   -5.1725 C.ar    1  UNL1       -0.0042
     27 C          60.1027   94.8361   -6.5727 C.ar    1  UNL1       -0.0003
     28 C          61.2794   94.2977   -7.3314 C.ar    1  UNL1       -0.0000
     29 C          62.6349   94.2665   -6.6899 C.ar    1  UNL1       -0.0003
     30 C          62.8137   94.7737   -5.2896 C.ar    1  UNL1       -0.0042
@<TRIPOS>BOND
     1     1     2    2
     2     2     3   am
     3     3    22    1
     4    22    23    1
     5    23    24    1
     6    24    25    1
     7    25    26   ar
     8    26    27   ar
     9    27    28   ar
    10    28    29   ar
    11    29    30   ar
    12     2     4   am
    13     4     5    1
    14     5     6    1
    15     6     7    1
    16     7    11    1
    17    11    12   ar
    18    12    13   ar
    19    13    16    1
    20    16    17   ar
    21    17    18   ar
    22    18    19   ar
    23    19    20   ar
    24    20    21   ar
    25    13    14   ar
    26    14    15   ar
    27     7     8    1
    28     8     9    1
    29    24    22    1
    30    30    25   ar
    31     9     4    1
    32    15    11   ar
    33    21    16   ar
    34     3    10    1
