@<TRIPOS>MOLECULE
*****
 38 41 0 0 0
SMALL
GASTEIGER

@<TRIPOS>ATOM
      1 C          62.5705   86.1234   11.5706 C.ar    1  UNL1        0.0561
      2 C          62.8001   87.4739   12.1817 C.ar    1  UNL1        0.0196
      3 C          63.5831   87.5975   13.4551 C.ar    1  UNL1        0.0768
      4 N          64.1365   86.3708   14.1174 N.ar    1  UNL1       -0.2480
      5 C          63.9069   85.0202   13.5063 C.ar    1  UNL1        0.0812
      6 C          64.4603   83.7934   14.1687 C.ar    1  UNL1        0.0214
      7 C          64.2306   82.4430   13.5576 C.ar    1  UNL1        0.0312
      8 C          63.4476   82.3193   12.2841 C.ar    1  UNL1        0.1402
      9 F          63.2180   80.9687   11.6731 F       1  UNL1       -0.2042
     10 C          62.8943   83.5461   11.6218 C.ar    1  UNL1        0.0313
     11 C          63.1239   84.8965   12.2329 C.ar    1  UNL1        0.0243
     12 C          62.2468   88.7008   11.5193 C.ar    1  UNL1        0.0013
     13 C          60.9442   89.2813   11.9845 C.ar    1  UNL1        0.0000
     14 C          60.3908   90.5081   11.3222 C.ar    1  UNL1        0.0000
     15 C          61.1400   91.1544   10.1948 C.ar    1  UNL1        0.0000
     16 C          62.4425   90.5738    9.7296 C.ar    1  UNL1        0.0000
     17 C          62.9959   89.3470   10.3919 C.ar    1  UNL1        0.0000
     18 N          62.4840   85.6282    9.0216 N.am    1  UNL1       -0.3009
     19 C          61.7875   85.9997   10.2971 C.2     1  UNL1        0.2459
     20 O          60.3082   86.2475   10.2993 O.2     1  UNL1       -0.2701
     21 H          63.4549   85.4656    9.0202 H       1  UNL1        0.1497
     22 C          62.2356   84.6782    6.6162 C.3     1  UNL1        0.0230
     23 C          61.7010   85.5046    7.7481 C.3     1  UNL1        0.0898
     24 C          63.8128   88.9481   14.0662 C.3     1  UNL1        0.1109
     25 C          63.5459   89.1659   15.5261 C.3     1  UNL1        0.0278
     26 N          64.3092   90.0808   13.2174 N.pl3   1  UNL1       -0.3142
     27 H          64.1231   90.0898   12.2507 H       1  UNL1        0.1485
     28 C          65.0892   91.1997   13.8414 C.ar    1  UNL1        0.1429
     29 N          65.4276   91.1546   15.3021 N.ar    1  UNL1       -0.2084
     30 C          66.2076   92.2735   15.9262 C.ar    1  UNL1        0.2012
     31 N          66.6494   93.4376   15.0897 N.ar    1  UNL1       -0.2087
     32 C          66.3111   93.4827   13.6290 C.ar    1  UNL1        0.1396
     33 N          66.7528   94.6468   12.7925 N.pl3   1  UNL1       -0.3420
     34 C          65.5310   92.3638   13.0049 C.ar    1  UNL1        0.1308
     35 H          67.2648   95.3812   13.2021 H       1  UNL1        0.1437
     36 H          66.5308   94.6764   11.8338 H       1  UNL1        0.1437
     37 C          65.1927   92.4089   11.5443 C.1     1  UNL1        0.1061
     38 N          64.8544   92.4541   10.0836 N.1     1  UNL1       -0.1906
@<TRIPOS>BOND
     1    22    23    1
     2    23    18    1
     3    18    19   am
     4    19    20    2
     5    19     1    1
     6     1     2   ar
     7     2    12    1
     8    12    13   ar
     9    13    14   ar
    10    14    15   ar
    11    15    16   ar
    12    16    17   ar
    13     2     3   ar
    14     3    24    1
    15    24    25    1
    16    24    26    1
    17    26    28    1
    18    28    29   ar
    19    29    30   ar
    20    30    31   ar
    21    31    32   ar
    22    32    33    1
    23    32    34   ar
    24    34    37    1
    25    37    38    3
    26     3     4   ar
    27     4     5   ar
    28     5     6   ar
    29     6     7   ar
    30     7     8   ar
    31     8     9    1
    32     8    10   ar
    33    10    11   ar
    34    11     1   ar
    35    17    12   ar
    36    34    28   ar
    37    11     5   ar
    38    18    21    1
    39    26    27    1
    40    33    35    1
    41    33    36    1
@<TRIPOS>MOLECULE
*****
 38 41 0 0 0
SMALL
GASTEIGER

@<TRIPOS>ATOM
      1 C          61.5298   93.6846   -0.6426 C.ar    1  UNL1        0.0561
      2 C          60.2969   94.3377   -1.1933 C.ar    1  UNL1        0.0196
      3 C          59.0559   94.4242   -0.3552 C.ar    1  UNL1        0.0768
      4 N          59.0477   93.8576    1.0336 N.ar    1  UNL1       -0.2480
      5 C          60.2807   93.2043    1.5843 C.ar    1  UNL1        0.0812
      6 C          60.2725   92.6377    2.9731 C.ar    1  UNL1        0.0214
      7 C          61.5054   91.9845    3.5238 C.ar    1  UNL1        0.0312
      8 C          62.7464   91.8980    2.6857 C.ar    1  UNL1        0.1402
      9 F          63.9794   91.2448    3.2365 F       1  UNL1       -0.2042
     10 C          62.7546   92.4647    1.2970 C.ar    1  UNL1        0.0313
     11 C          61.5217   93.1179    0.7463 C.ar    1  UNL1        0.0243
     12 C          60.3050   94.9045   -2.5822 C.ar    1  UNL1        0.0013
     13 C          60.8355   96.2863   -2.8252 C.ar    1  UNL1        0.0000
     14 C          60.8436   96.8530   -4.2140 C.ar    1  UNL1        0.0000
     15 C          60.3212   96.0379   -5.3597 C.ar    1  UNL1        0.0000
     16 C          59.7906   94.6561   -5.1166 C.ar    1  UNL1        0.0000
     17 C          59.7825   94.0894   -3.7278 C.ar    1  UNL1        0.0000
     18 N          62.7824   92.7507   -2.7184 N.am    1  UNL1       -0.3009
     19 C          62.7708   93.5981   -1.4807 C.2     1  UNL1        0.2459
     20 O          64.0002   94.3590   -1.0811 O.2     1  UNL1       -0.2701
     21 H          61.9755   92.2513   -2.9806 H       1  UNL1        0.1497
     22 C          64.1777   93.5444   -4.7612 C.3     1  UNL1        0.0230
     23 C          64.0234   92.6642   -3.5565 C.3     1  UNL1        0.0898
     24 C          57.8229   95.0774   -0.9060 C.3     1  UNL1        0.1109
     25 C          57.7830   96.5650   -1.0949 C.3     1  UNL1        0.0278
     26 N          56.6301   94.2431   -1.2678 N.pl3   1  UNL1       -0.3142
     27 H          55.8734   94.1687   -0.6423 H       1  UNL1        0.1485
     28 C          56.5900   93.5223   -2.5826 C.ar    1  UNL1        0.1429
     29 N          57.2267   92.1706   -2.7166 N.ar    1  UNL1       -0.2084
     30 C          57.1866   91.4498   -4.0313 C.ar    1  UNL1        0.2012
     31 N          56.5099   92.0804   -5.2122 N.ar    1  UNL1       -0.2087
     32 C          55.8733   93.4320   -5.0782 C.ar    1  UNL1        0.1396
     33 N          55.1966   94.0626   -6.2590 N.pl3   1  UNL1       -0.3420
     34 C          55.9133   94.1529   -3.7634 C.ar    1  UNL1        0.1308
     35 H          55.1703   93.5895   -7.1220 H       1  UNL1        0.1437
     36 H          54.7787   94.9497   -6.1711 H       1  UNL1        0.1437
     37 C          55.2766   95.5044   -3.6294 C.1     1  UNL1        0.1061
     38 N          54.6400   96.8560   -3.4955 N.1     1  UNL1       -0.1906
@<TRIPOS>BOND
     1    22    23    1
     2    23    18    1
     3    18    19   am
     4    19    20    2
     5    19     1    1
     6     1     2   ar
     7     2    12    1
     8    12    13   ar
     9    13    14   ar
    10    14    15   ar
    11    15    16   ar
    12    16    17   ar
    13     2     3   ar
    14     3    24    1
    15    24    25    1
    16    24    26    1
    17    26    28    1
    18    28    29   ar
    19    29    30   ar
    20    30    31   ar
    21    31    32   ar
    22    32    33    1
    23    32    34   ar
    24    34    37    1
    25    37    38    3
    26     3     4   ar
    27     4     5   ar
    28     5     6   ar
    29     6     7   ar
    30     7     8   ar
    31     8     9    1
    32     8    10   ar
    33    10    11   ar
    34    11     1   ar
    35    17    12   ar
    36    34    28   ar
    37    11     5   ar
    38    18    21    1
    39    26    27    1
    40    33    35    1
    41    33    36    1
@<TRIPOS>MOLECULE
*****
 38 41 0 0 0
SMALL
GASTEIGER

@<TRIPOS>ATOM
      1 C          61.2581   93.8714   -1.0661 C.ar    1  UNL1        0.0561
      2 C          59.9817   94.3892   -1.6599 C.ar    1  UNL1        0.0196
      3 C          58.7245   94.4011   -0.8418 C.ar    1  UNL1        0.0768
      4 N          58.7436   93.8952    0.5701 N.ar    1  UNL1       -0.2480
      5 C          60.0200   93.3774    1.1641 C.ar    1  UNL1        0.0812
      6 C          60.0392   92.8715    2.5760 C.ar    1  UNL1        0.0214
      7 C          61.3156   92.3537    3.1699 C.ar    1  UNL1        0.0312
      8 C          62.5728   92.3418    2.3518 C.ar    1  UNL1        0.1402
      9 F          63.8492   91.8240    2.9458 F       1  UNL1       -0.2042
     10 C          62.5536   92.8477    0.9399 C.ar    1  UNL1        0.0313
     11 C          61.2773   93.3655    0.3460 C.ar    1  UNL1        0.0243
     12 C          59.9625   94.8951   -3.0720 C.ar    1  UNL1        0.0013
     13 C          59.7061   93.9463   -4.2051 C.ar    1  UNL1        0.0000
     14 C          59.6869   94.4521   -5.6171 C.ar    1  UNL1        0.0000
     15 C          59.9241   95.9067   -5.8959 C.ar    1  UNL1        0.0000
     16 C          60.1804   96.8555   -4.7627 C.ar    1  UNL1        0.0000
     17 C          60.1996   96.3497   -3.3508 C.ar    1  UNL1        0.0000
     18 N          62.7901   92.7201   -2.8204 N.am    1  UNL1       -0.3009
     19 C          62.5153   93.8594   -1.8841 C.2     1  UNL1        0.2459
     20 O          63.4977   94.9868   -1.7660 O.2     1  UNL1       -0.2701
     21 H          62.1453   91.9802   -2.8979 H       1  UNL1        0.1497
     22 C          63.9746   92.5004   -5.1222 C.3     1  UNL1        0.0230
     23 C          64.0473   92.7081   -3.6385 C.3     1  UNL1        0.0898
     24 C          57.4481   94.9189   -1.4358 C.3     1  UNL1        0.1109
     25 C          57.0494   96.3496   -1.2257 C.3     1  UNL1        0.0278
     26 N          56.5704   94.0061   -2.2397 N.pl3   1  UNL1       -0.3142
     27 H          56.1447   93.2288   -1.8109 H       1  UNL1        0.1485
     28 C          56.3413   94.2775   -3.6970 C.ar    1  UNL1        0.1429
     29 N          56.4253   95.6806   -4.2209 N.ar    1  UNL1       -0.2084
     30 C          56.1962   95.9520   -5.6782 C.ar    1  UNL1        0.2012
     31 N          55.8831   94.8204   -6.6117 N.ar    1  UNL1       -0.2087
     32 C          55.7991   93.4174   -6.0879 C.ar    1  UNL1        0.1396
     33 N          55.4860   92.2857   -7.0214 N.pl3   1  UNL1       -0.3420
     34 C          56.0282   93.1459   -4.6305 C.ar    1  UNL1        0.1308
     35 H          55.3356   92.4639   -7.9779 H       1  UNL1        0.1437
     36 H          55.4308   91.3649   -6.6776 H       1  UNL1        0.1437
     37 C          55.9442   91.7429   -4.1067 C.1     1  UNL1        0.1061
     38 N          55.8601   90.3398   -3.5829 N.1     1  UNL1       -0.1906
@<TRIPOS>BOND
     1    22    23    1
     2    23    18    1
     3    18    19   am
     4    19    20    2
     5    19     1    1
     6     1     2   ar
     7     2    12    1
     8    12    13   ar
     9    13    14   ar
    10    14    15   ar
    11    15    16   ar
    12    16    17   ar
    13     2     3   ar
    14     3    24    1
    15    24    25    1
    16    24    26    1
    17    26    28    1
    18    28    29   ar
    19    29    30   ar
    20    30    31   ar
    21    31    32   ar
    22    32    33    1
    23    32    34   ar
    24    34    37    1
    25    37    38    3
    26     3     4   ar
    27     4     5   ar
    28     5     6   ar
    29     6     7   ar
    30     7     8   ar
    31     8     9    1
    32     8    10   ar
    33    10    11   ar
    34    11     1   ar
    35    17    12   ar
    36    34    28   ar
    37    11     5   ar
    38    18    21    1
    39    26    27    1
    40    33    35    1
    41    33    36    1
@<TRIPOS>MOLECULE
*****
 38 41 0 0 0
SMALL
GASTEIGER

@<TRIPOS>ATOM
      1 C          62.5014   85.7584   10.7954 C.ar    1  UNL1        0.0561
      2 C          62.7414   86.9545   11.6682 C.ar    1  UNL1        0.0196
      3 C          63.4843   86.8016   12.9623 C.ar    1  UNL1        0.0768
      4 N          63.9870   85.4527   13.3837 N.ar    1  UNL1       -0.2480
      5 C          63.7470   84.2566   12.5110 C.ar    1  UNL1        0.0812
      6 C          64.2497   82.9077   12.9325 C.ar    1  UNL1        0.0214
      7 C          64.0096   81.7116   12.0597 C.ar    1  UNL1        0.0312
      8 C          63.2668   81.8644   10.7656 C.ar    1  UNL1        0.1402
      9 F          63.0267   80.6682    9.8929 F       1  UNL1       -0.2042
     10 C          62.7640   83.2133   10.3441 C.ar    1  UNL1        0.0313
     11 C          63.0041   84.4094   11.2169 C.ar    1  UNL1        0.0243
     12 C          62.2387   88.3035   11.2467 C.ar    1  UNL1        0.0013
     13 C          60.8992   88.7858   11.7192 C.ar    1  UNL1        0.0000
     14 C          60.3964   90.1347   11.2978 C.ar    1  UNL1        0.0000
     15 C          61.2331   91.0013   10.4040 C.ar    1  UNL1        0.0000
     16 C          62.5726   90.5189    9.9315 C.ar    1  UNL1        0.0000
     17 C          63.0754   89.1700   10.3529 C.ar    1  UNL1        0.0000
     18 N          60.3242   86.3502    9.5072 N.am    1  UNL1       -0.3009
     19 C          61.7585   85.9112    9.5013 C.2     1  UNL1        0.2459
     20 O          62.4500   85.6250    8.2013 O.2     1  UNL1       -0.2701
     21 H          59.8703   86.5380   10.3604 H       1  UNL1        0.1497
     22 C          59.2763   87.8716    7.6804 C.3     1  UNL1        0.0230
     23 C          59.5813   86.5030    8.2130 C.3     1  UNL1        0.0898
     24 C          63.7244   87.9978   13.8350 C.3     1  UNL1        0.1109
     25 C          64.3836   87.8306   15.1720 C.3     1  UNL1        0.0278
     26 N          63.3052   89.3612   13.3708 N.pl3   1  UNL1       -0.3142
     27 H          62.4431   89.4811   12.9108 H       1  UNL1        0.1485
     28 C          64.1996   90.5418   13.6074 C.ar    1  UNL1        0.1429
     29 N          64.9307   91.1711   12.4587 N.ar    1  UNL1       -0.2084
     30 C          65.8251   92.3518   12.6953 C.ar    1  UNL1        0.2012
     31 N          65.9884   92.9032   14.0807 N.ar    1  UNL1       -0.2087
     32 C          65.2574   92.2741   15.2294 C.ar    1  UNL1        0.1396
     33 N          65.4207   92.8255   16.6147 N.pl3   1  UNL1       -0.3420
     34 C          64.3629   91.0933   14.9928 C.ar    1  UNL1        0.1308
     35 H          66.0077   93.6005   16.7700 H       1  UNL1        0.1437
     36 H          64.9408   92.4126   17.3687 H       1  UNL1        0.1437
     37 C          63.6318   90.4641   16.1415 C.1     1  UNL1        0.1061
     38 N          62.9008   89.8350   17.2902 N.1     1  UNL1       -0.1906
@<TRIPOS>BOND
     1    22    23    1
     2    23    18    1
     3    18    19   am
     4    19    20    2
     5    19     1    1
     6     1     2   ar
     7     2    12    1
     8    12    13   ar
     9    13    14   ar
    10    14    15   ar
    11    15    16   ar
    12    16    17   ar
    13     2     3   ar
    14     3    24    1
    15    24    25    1
    16    24    26    1
    17    26    28    1
    18    28    29   ar
    19    29    30   ar
    20    30    31   ar
    21    31    32   ar
    22    32    33    1
    23    32    34   ar
    24    34    37    1
    25    37    38    3
    26     3     4   ar
    27     4     5   ar
    28     5     6   ar
    29     6     7   ar
    30     7     8   ar
    31     8     9    1
    32     8    10   ar
    33    10    11   ar
    34    11     1   ar
    35    17    12   ar
    36    34    28   ar
    37    11     5   ar
    38    18    21    1
    39    26    27    1
    40    33    35    1
    41    33    36    1
@<TRIPOS>MOLECULE
*****
 38 41 0 0 0
SMALL
GASTEIGER

@<TRIPOS>ATOM
      1 C          62.8914   89.2475   11.6900 C.ar    1  UNL1        0.0561
      2 C          63.5516   88.8231   12.9682 C.ar    1  UNL1        0.0196
      3 C          63.5349   87.3803   13.3780 C.ar    1  UNL1        0.0768
      4 N          62.8578   86.3618   12.5096 N.ar    1  UNL1       -0.2480
      5 C          62.1975   86.7861   11.2313 C.ar    1  UNL1        0.0812
      6 C          61.5205   85.7676   10.3628 C.ar    1  UNL1        0.0214
      7 C          60.8602   86.1919    9.0846 C.ar    1  UNL1        0.0312
      8 C          60.8770   87.6348    8.6748 C.ar    1  UNL1        0.1402
      9 F          60.2167   88.0591    7.3965 F       1  UNL1       -0.2042
     10 C          61.5540   88.6533    9.5432 C.ar    1  UNL1        0.0313
     11 C          62.2143   88.2290   10.8215 C.ar    1  UNL1        0.0243
     12 C          64.2287   89.8417   13.8367 C.ar    1  UNL1        0.0013
     13 C          63.4928   90.4480   14.9947 C.ar    1  UNL1        0.0000
     14 C          64.1699   91.4665   15.8632 C.ar    1  UNL1        0.0000
     15 C          65.5827   91.8786   15.5737 C.ar    1  UNL1        0.0000
     16 C          66.3186   91.2723   14.4158 C.ar    1  UNL1        0.0000
     17 C          65.6416   90.2538   13.5473 C.ar    1  UNL1        0.0000
     18 N          64.1965   91.3374   10.8660 N.am    1  UNL1       -0.3009
     19 C          62.9082   90.6903   11.2802 C.2     1  UNL1        0.2459
     20 O          61.6367   91.4860   11.2845 O.2     1  UNL1       -0.2701
     21 H          65.0311   90.8152   10.8632 H       1  UNL1        0.1497
     22 C          65.3867   93.6461   10.8075 C.3     1  UNL1        0.0230
     23 C          64.2133   92.7803   10.4562 C.3     1  UNL1        0.0898
     24 C          64.1952   86.9560   14.6563 C.3     1  UNL1        0.1109
     25 C          63.9748   87.7458   15.9124 C.3     1  UNL1        0.0278
     26 N          65.0758   85.7419   14.6786 N.pl3   1  UNL1       -0.3142
     27 H          65.9902   85.8036   15.0382 H       1  UNL1        0.1485
     28 C          64.5632   84.4340   14.1528 C.ar    1  UNL1        0.1429
     29 N          65.2592   83.7619   13.0065 N.ar    1  UNL1       -0.2084
     30 C          64.7466   82.4539   12.4808 C.ar    1  UNL1        0.2012
     31 N          63.5381   81.8180   13.1013 N.ar    1  UNL1       -0.2087
     32 C          62.8421   82.4900   14.2475 C.ar    1  UNL1        0.1396
     33 N          61.6336   81.8541   14.8680 N.pl3   1  UNL1       -0.3420
     34 C          63.3547   83.7980   14.7733 C.ar    1  UNL1        0.1308
     35 H          61.2972   80.9956   14.5229 H       1  UNL1        0.1437
     36 H          61.1768   82.2952   15.6204 H       1  UNL1        0.1437
     37 C          62.6587   84.4701   15.9196 C.1     1  UNL1        0.1061
     38 N          61.9627   85.1421   17.0658 N.1     1  UNL1       -0.1906
@<TRIPOS>BOND
     1    22    23    1
     2    23    18    1
     3    18    19   am
     4    19    20    2
     5    19     1    1
     6     1     2   ar
     7     2    12    1
     8    12    13   ar
     9    13    14   ar
    10    14    15   ar
    11    15    16   ar
    12    16    17   ar
    13     2     3   ar
    14     3    24    1
    15    24    25    1
    16    24    26    1
    17    26    28    1
    18    28    29   ar
    19    29    30   ar
    20    30    31   ar
    21    31    32   ar
    22    32    33    1
    23    32    34   ar
    24    34    37    1
    25    37    38    3
    26     3     4   ar
    27     4     5   ar
    28     5     6   ar
    29     6     7   ar
    30     7     8   ar
    31     8     9    1
    32     8    10   ar
    33    10    11   ar
    34    11     1   ar
    35    17    12   ar
    36    34    28   ar
    37    11     5   ar
    38    18    21    1
    39    26    27    1
    40    33    35    1
    41    33    36    1
@<TRIPOS>MOLECULE
*****
 38 41 0 0 0
SMALL
GASTEIGER

@<TRIPOS>ATOM
      1 C          62.6391   94.7312   -3.6473 C.ar    1  UNL1        0.0561
      2 C          61.1559   94.8748   -3.4765 C.ar    1  UNL1        0.0196
      3 C          60.3260   95.4542   -4.5836 C.ar    1  UNL1        0.0768
      4 N          60.9794   95.8900   -5.8615 N.ar    1  UNL1       -0.2480
      5 C          62.4628   95.7464   -6.0324 C.ar    1  UNL1        0.0812
      6 C          63.1162   96.1822   -7.3103 C.ar    1  UNL1        0.0214
      7 C          64.5995   96.0387   -7.4811 C.ar    1  UNL1        0.0312
      8 C          65.4293   95.4593   -6.3740 C.ar    1  UNL1        0.1402
      9 F          66.9127   95.3158   -6.5448 F       1  UNL1       -0.2042
     10 C          64.7759   95.0235   -5.0961 C.ar    1  UNL1        0.0313
     11 C          63.2926   95.1671   -4.9253 C.ar    1  UNL1        0.0243
     12 C          60.5024   94.4390   -2.1986 C.ar    1  UNL1        0.0013
     13 C          60.2098   95.4447   -1.1249 C.ar    1  UNL1        0.0000
     14 C          59.5564   95.0090    0.1530 C.ar    1  UNL1        0.0000
     15 C          59.1954   93.5675    0.3572 C.ar    1  UNL1        0.0000
     16 C          59.4880   92.5617   -0.7165 C.ar    1  UNL1        0.0000
     17 C          60.1414   92.9975   -1.9944 C.ar    1  UNL1        0.0000
     18 N          63.8646   95.0071   -1.3731 N.am    1  UNL1       -0.3009
     19 C          63.4690   94.1519   -2.5402 C.2     1  UNL1        0.2459
     20 O          63.9032   92.7174   -2.6003 O.2     1  UNL1       -0.2701
     21 H          63.5796   95.9486   -1.3337 H       1  UNL1        0.1497
     22 C          64.0444   93.6067    0.8078 C.3     1  UNL1        0.0230
     23 C          64.6945   94.4277   -0.2660 C.3     1  UNL1        0.0898
     24 C          58.8426   95.5977   -4.4128 C.3     1  UNL1        0.1109
     25 C          58.2735   96.8554   -3.8260 C.3     1  UNL1        0.0278
     26 N          57.9285   94.4836   -4.8286 N.pl3   1  UNL1       -0.3142
     27 H          57.8202   94.2658   -5.7826 H       1  UNL1        0.1485
     28 C          57.1793   93.7013   -3.7910 C.ar    1  UNL1        0.1429
     29 N          56.8476   94.3317   -2.4709 N.ar    1  UNL1       -0.2084
     30 C          56.0985   93.5494   -1.4333 C.ar    1  UNL1        0.2012
     31 N          55.6810   92.1366   -1.7157 N.ar    1  UNL1       -0.2087
     32 C          56.0127   91.5061   -3.0357 C.ar    1  UNL1        0.1396
     33 N          55.5952   90.0933   -3.3180 N.pl3   1  UNL1       -0.3420
     34 C          56.7619   92.2885   -4.0734 C.ar    1  UNL1        0.1308
     35 H          55.1035   89.5799   -2.6370 H       1  UNL1        0.1437
     36 H          55.8129   89.6795   -4.1844 H       1  UNL1        0.1437
     37 C          57.0936   91.6580   -5.3934 C.1     1  UNL1        0.1061
     38 N          57.4252   91.0275   -6.7134 N.1     1  UNL1       -0.1906
@<TRIPOS>BOND
     1    22    23    1
     2    23    18    1
     3    18    19   am
     4    19    20    2
     5    19     1    1
     6     1     2   ar
     7     2    12    1
     8    12    13   ar
     9    13    14   ar
    10    14    15   ar
    11    15    16   ar
    12    16    17   ar
    13     2     3   ar
    14     3    24    1
    15    24    25    1
    16    24    26    1
    17    26    28    1
    18    28    29   ar
    19    29    30   ar
    20    30    31   ar
    21    31    32   ar
    22    32    33    1
    23    32    34   ar
    24    34    37    1
    25    37    38    3
    26     3     4   ar
    27     4     5   ar
    28     5     6   ar
    29     6     7   ar
    30     7     8   ar
    31     8     9    1
    32     8    10   ar
    33    10    11   ar
    34    11     1   ar
    35    17    12   ar
    36    34    28   ar
    37    11     5   ar
    38    18    21    1
    39    26    27    1
    40    33    35    1
    41    33    36    1
@<TRIPOS>MOLECULE
*****
 38 41 0 0 0
SMALL
GASTEIGER

@<TRIPOS>ATOM
      1 C          62.7625   86.3437   11.8742 C.ar    1  UNL1        0.0561
      2 C          62.9176   87.7473   12.3798 C.ar    1  UNL1        0.0196
      3 C          63.6832   88.0092   13.6429 C.ar    1  UNL1        0.0768
      4 N          64.2936   86.8674   14.4003 N.ar    1  UNL1       -0.2480
      5 C          64.1385   85.4637   13.8947 C.ar    1  UNL1        0.0812
      6 C          64.7489   84.3220   14.6521 C.ar    1  UNL1        0.0214
      7 C          64.5938   82.9184   14.1465 C.ar    1  UNL1        0.0312
      8 C          63.8282   82.6565   12.8834 C.ar    1  UNL1        0.1402
      9 F          63.6731   81.2527   12.3778 F       1  UNL1       -0.2042
     10 C          63.2178   83.7982   12.1260 C.ar    1  UNL1        0.0313
     11 C          63.3729   85.2018   12.6316 C.ar    1  UNL1        0.0243
     12 C          62.3072   88.8891   11.6223 C.ar    1  UNL1        0.0013
     13 C          60.9472   89.3975   11.9994 C.ar    1  UNL1        0.0000
     14 C          60.3368   90.5392   11.2420 C.ar    1  UNL1        0.0000
     15 C          61.0863   91.1727   10.1076 C.ar    1  UNL1        0.0000
     16 C          62.4462   90.6643    9.7305 C.ar    1  UNL1        0.0000
     17 C          63.0566   89.5225   10.4879 C.ar    1  UNL1        0.0000
     18 N          62.7313   85.8314    9.3273 N.am    1  UNL1       -0.3009
     19 C          61.9969   86.0818   10.6111 C.2     1  UNL1        0.2459
     20 O          60.4972   86.0702   10.6318 O.2     1  UNL1       -0.2701
     21 H          63.7156   85.8390    9.3137 H       1  UNL1        0.1497
     22 C          62.5464   84.6787    7.0063 C.3     1  UNL1        0.0230
     23 C          61.9657   85.5695    8.0642 C.3     1  UNL1        0.0898
     24 C          63.8383   89.4129   14.1485 C.3     1  UNL1        0.1109
     25 C          62.6553   90.1414   14.7140 C.3     1  UNL1        0.0278
     26 N          65.1763   90.0881   14.0885 N.pl3   1  UNL1       -0.3142
     27 H          65.9337   89.7265   14.6032 H       1  UNL1        0.1485
     28 C          65.3604   91.3143   13.2444 C.ar    1  UNL1        0.1429
     29 N          64.9014   91.3176   11.8163 N.ar    1  UNL1       -0.2084
     30 C          65.0856   92.5438   10.9722 C.ar    1  UNL1        0.2012
     31 N          65.7287   93.7667   11.5562 N.ar    1  UNL1       -0.2087
     32 C          66.1877   93.7634   12.9842 C.ar    1  UNL1        0.1396
     33 N          66.8308   94.9863   13.5681 N.pl3   1  UNL1       -0.3420
     34 C          66.0036   92.5372   13.8284 C.ar    1  UNL1        0.1308
     35 H          66.9516   95.7911   13.0141 H       1  UNL1        0.1437
     36 H          67.1321   94.9841   14.5054 H       1  UNL1        0.1437
     37 C          66.4626   92.5339   15.2564 C.1     1  UNL1        0.1061
     38 N          66.9216   92.5306   16.6844 N.1     1  UNL1       -0.1906
@<TRIPOS>BOND
     1    22    23    1
     2    23    18    1
     3    18    19   am
     4    19    20    2
     5    19     1    1
     6     1     2   ar
     7     2    12    1
     8    12    13   ar
     9    13    14   ar
    10    14    15   ar
    11    15    16   ar
    12    16    17   ar
    13     2     3   ar
    14     3    24    1
    15    24    25    1
    16    24    26    1
    17    26    28    1
    18    28    29   ar
    19    29    30   ar
    20    30    31   ar
    21    31    32   ar
    22    32    33    1
    23    32    34   ar
    24    34    37    1
    25    37    38    3
    26     3     4   ar
    27     4     5   ar
    28     5     6   ar
    29     6     7   ar
    30     7     8   ar
    31     8     9    1
    32     8    10   ar
    33    10    11   ar
    34    11     1   ar
    35    17    12   ar
    36    34    28   ar
    37    11     5   ar
    38    18    21    1
    39    26    27    1
    40    33    35    1
    41    33    36    1
@<TRIPOS>MOLECULE
*****
 38 41 0 0 0
SMALL
GASTEIGER

@<TRIPOS>ATOM
      1 C          61.5498   93.9902   -1.4845 C.ar    1  UNL1        0.0561
      2 C          60.3672   94.6006   -2.1764 C.ar    1  UNL1        0.0196
      3 C          59.0671   94.7546   -1.4444 C.ar    1  UNL1        0.0768
      4 N          58.9495   94.2981   -0.0204 N.ar    1  UNL1       -0.2480
      5 C          60.1322   93.6877    0.6717 C.ar    1  UNL1        0.0812
      6 C          60.0146   93.2313    2.0957 C.ar    1  UNL1        0.0214
      7 C          61.1972   92.6209    2.7876 C.ar    1  UNL1        0.0312
      8 C          62.4974   92.4670    2.0555 C.ar    1  UNL1        0.1402
      9 F          63.6800   91.8565    2.7476 F       1  UNL1       -0.2042
     10 C          62.6149   92.9234    0.6315 C.ar    1  UNL1        0.0313
     11 C          61.4323   93.5338   -0.0604 C.ar    1  UNL1        0.0243
     12 C          60.4848   95.0570   -3.6005 C.ar    1  UNL1        0.0013
     13 C          60.0084   94.1716   -4.7136 C.ar    1  UNL1        0.0000
     14 C          60.1259   94.6280   -6.1376 C.ar    1  UNL1        0.0000
     15 C          60.7197   95.9698   -6.4485 C.ar    1  UNL1        0.0000
     16 C          61.1961   96.8553   -5.3354 C.ar    1  UNL1        0.0000
     17 C          61.0786   96.3989   -3.9114 C.ar    1  UNL1        0.0000
     18 N          63.0254   92.7242   -3.2079 N.am    1  UNL1       -0.3009
     19 C          62.8500   93.8362   -2.2165 C.2     1  UNL1        0.2459
     20 O          63.9747   94.7942   -1.9572 O.2     1  UNL1       -0.2701
     21 H          62.2872   92.0955   -3.3781 H       1  UNL1        0.1497
     22 C          64.3282   92.3042   -5.4161 C.3     1  UNL1        0.0230
     23 C          64.3256   92.5703   -3.9400 C.3     1  UNL1        0.0898
     24 C          57.8844   95.3650   -2.1364 C.3     1  UNL1        0.1109
     25 C          57.7837   96.8551   -2.2754 C.3     1  UNL1        0.0278
     26 N          56.8027   94.4853   -2.6893 N.pl3   1  UNL1       -0.3142
     27 H          57.0012   93.5504   -2.9258 H       1  UNL1        0.1485
     28 C          55.4184   95.0299   -2.8821 C.ar    1  UNL1        0.1429
     29 N          54.5533   95.3183   -1.6910 N.ar    1  UNL1       -0.2084
     30 C          53.1691   95.8629   -1.8838 C.ar    1  UNL1        0.2012
     31 N          52.6498   96.1192   -3.2675 N.ar    1  UNL1       -0.2087
     32 C          53.5149   95.8309   -4.4585 C.ar    1  UNL1        0.1396
     33 N          52.9957   96.0872   -5.8422 N.pl3   1  UNL1       -0.3420
     34 C          54.8992   95.2862   -4.2658 C.ar    1  UNL1        0.1308
     35 H          52.0871   96.4447   -5.9687 H       1  UNL1        0.1437
     36 H          53.5634   95.8980   -6.6239 H       1  UNL1        0.1437
     37 C          55.7642   94.9979   -5.4568 C.1     1  UNL1        0.1061
     38 N          56.6293   94.7096   -6.6478 N.1     1  UNL1       -0.1906
@<TRIPOS>BOND
     1    22    23    1
     2    23    18    1
     3    18    19   am
     4    19    20    2
     5    19     1    1
     6     1     2   ar
     7     2    12    1
     8    12    13   ar
     9    13    14   ar
    10    14    15   ar
    11    15    16   ar
    12    16    17   ar
    13     2     3   ar
    14     3    24    1
    15    24    25    1
    16    24    26    1
    17    26    28    1
    18    28    29   ar
    19    29    30   ar
    20    30    31   ar
    21    31    32   ar
    22    32    33    1
    23    32    34   ar
    24    34    37    1
    25    37    38    3
    26     3     4   ar
    27     4     5   ar
    28     5     6   ar
    29     6     7   ar
    30     7     8   ar
    31     8     9    1
    32     8    10   ar
    33    10    11   ar
    34    11     1   ar
    35    17    12   ar
    36    34    28   ar
    37    11     5   ar
    38    18    21    1
    39    26    27    1
    40    33    35    1
    41    33    36    1
@<TRIPOS>MOLECULE
*****
 38 41 0 0 0
SMALL
GASTEIGER

@<TRIPOS>ATOM
      1 C          61.0209   94.0881   -1.8139 C.ar    1  UNL1        0.0561
      2 C          59.7177   94.3070   -2.5237 C.ar    1  UNL1        0.0196
      3 C          58.4229   94.0944   -1.7970 C.ar    1  UNL1        0.0768
      4 N          58.4311   93.6629   -0.3605 N.ar    1  UNL1       -0.2480
      5 C          59.7342   93.4439    0.3494 C.ar    1  UNL1        0.0812
      6 C          59.7425   93.0124    1.7860 C.ar    1  UNL1        0.0214
      7 C          61.0456   92.7935    2.4958 C.ar    1  UNL1        0.0312
      8 C          62.3405   93.0061    1.7691 C.ar    1  UNL1        0.1402
      9 F          63.6436   92.7871    2.4791 F       1  UNL1       -0.2042
     10 C          62.3322   93.4376    0.3326 C.ar    1  UNL1        0.0313
     11 C          61.0291   93.6565   -0.3772 C.ar    1  UNL1        0.0243
     12 C          59.7095   94.7385   -3.9603 C.ar    1  UNL1        0.0013
     13 C          59.9913   96.1684   -4.3155 C.ar    1  UNL1        0.0000
     14 C          59.9830   96.5999   -5.7521 C.ar    1  UNL1        0.0000
     15 C          59.6930   95.6016   -6.8334 C.ar    1  UNL1        0.0000
     16 C          59.4112   94.1718   -6.4782 C.ar    1  UNL1        0.0000
     17 C          59.4194   93.7403   -5.0416 C.ar    1  UNL1        0.0000
     18 N          62.9564   93.1634   -3.2798 N.am    1  UNL1       -0.3009
     19 C          62.3157   94.3007   -2.5405 C.2     1  UNL1        0.2459
     20 O          62.9700   95.6504   -2.5280 O.2     1  UNL1       -0.2701
     21 H          62.5269   92.2776   -3.2881 H       1  UNL1        0.1497
     22 C          64.6903   92.4003   -5.0577 C.3     1  UNL1        0.0230
     23 C          64.2513   93.3760   -4.0065 C.3     1  UNL1        0.0898
     24 C          57.1197   94.3133   -2.5070 C.3     1  UNL1        0.1109
     25 C          56.2116   93.1518   -2.7829 C.3     1  UNL1        0.0278
     26 N          56.7247   95.6938   -2.9409 N.pl3   1  UNL1       -0.3142
     27 H          57.0569   96.4786   -2.4481 H       1  UNL1        0.1485
     28 C          55.8236   95.8784   -4.1257 C.ar    1  UNL1        0.1429
     29 N          56.4008   95.9061   -5.5100 N.ar    1  UNL1       -0.2084
     30 C          55.4996   96.0907   -6.6948 C.ar    1  UNL1        0.2012
     31 N          54.0213   96.2476   -6.4954 N.ar    1  UNL1       -0.2087
     32 C          53.4440   96.2198   -5.1112 C.ar    1  UNL1        0.1396
     33 N          51.9656   96.3767   -4.9119 N.pl3   1  UNL1       -0.3420
     34 C          54.3452   96.0352   -3.9263 C.ar    1  UNL1        0.1308
     35 H          51.3742   96.4979   -5.6895 H       1  UNL1        0.1437
     36 H          51.5868   96.3585   -4.0034 H       1  UNL1        0.1437
     37 C          53.7679   96.0075   -2.5422 C.1     1  UNL1        0.1061
     38 N          53.1907   95.9798   -1.1580 N.1     1  UNL1       -0.1906
@<TRIPOS>BOND
     1    22    23    1
     2    23    18    1
     3    18    19   am
     4    19    20    2
     5    19     1    1
     6     1     2   ar
     7     2    12    1
     8    12    13   ar
     9    13    14   ar
    10    14    15   ar
    11    15    16   ar
    12    16    17   ar
    13     2     3   ar
    14     3    24    1
    15    24    25    1
    16    24    26    1
    17    26    28    1
    18    28    29   ar
    19    29    30   ar
    20    30    31   ar
    21    31    32   ar
    22    32    33    1
    23    32    34   ar
    24    34    37    1
    25    37    38    3
    26     3     4   ar
    27     4     5   ar
    28     5     6   ar
    29     6     7   ar
    30     7     8   ar
    31     8     9    1
    32     8    10   ar
    33    10    11   ar
    34    11     1   ar
    35    17    12   ar
    36    34    28   ar
    37    11     5   ar
    38    18    21    1
    39    26    27    1
    40    33    35    1
    41    33    36    1
