@<TRIPOS>MOLECULE
*****
 43 48 0 0 0
SMALL
GASTEIGER

@<TRIPOS>ATOM
      1 O          62.2814   90.1742   12.7696 O.2     1  UNL1       -0.2733
      2 C          62.8205   89.5985   11.4938 C.2     1  UNL1        0.2410
      3 N          63.7098   90.4265   10.6142 N.am    1  UNL1       -0.2966
      4 H          64.0637   90.0487    9.7768 H       1  UNL1        0.1499
      5 C          64.0600   91.8302   11.0106 C.3     1  UNL1        0.1543
      6 C          65.0017   92.0743   12.1523 C.ar    1  UNL1        0.1417
      7 N          64.6630   91.9789   13.6104 N.ar    1  UNL1       -0.2276
      8 C          65.8994   92.3024   14.3957 C.ar    1  UNL1        0.1167
      9 C          66.1635   92.3662   15.8709 C.ar    1  UNL1        0.0238
     10 C          67.5305   92.7253   16.3732 C.ar    1  UNL1        0.0223
     11 C          68.6334   93.0206   15.4004 C.ar    1  UNL1        0.1006
     12 N          68.3693   92.9568   13.9252 N.ar    1  UNL1       -0.2252
     13 C          67.0023   92.5977   13.4229 C.ar    1  UNL1        0.1626
     14 N          66.4475   92.4567   12.0364 N.ar    1  UNL1       -0.2990
     15 C          67.2054   92.6621   10.7584 C.3     1  UNL1        0.0898
     16 C          68.1124   92.3821    9.5969 C.3     1  UNL1        0.0273
     17 C          67.8977   91.3357   10.6499 C.3     1  UNL1        0.0273
     18 C          66.7766   94.0598   10.4229 C.ar    1  UNL1       -0.0037
     19 C          66.9708   94.5908    9.0336 C.ar    1  UNL1       -0.0025
     20 C          66.5419   95.9885    8.6981 C.ar    1  UNL1       -0.0003
     21 C          65.9188   96.8551    9.7520 C.ar    1  UNL1       -0.0000
     22 C          65.7245   96.3241   11.1413 C.ar    1  UNL1       -0.0003
     23 C          66.1534   94.9264   11.4768 C.ar    1  UNL1       -0.0025
     24 C          62.4704   88.1948   11.0973 C.3     1  UNL1        0.1530
     25 N          63.2421   87.0406   11.6649 N.am    1  UNL1       -0.2979
     26 C          62.5142   85.8554   12.2265 C.2     1  UNL1        0.2299
     27 O          61.0145   85.8244   12.2206 O.2     1  UNL1       -0.2748
     28 H          64.2264   87.0609   11.6688 H       1  UNL1        0.1498
     29 C          63.2859   84.7011   12.7941 C.3     1  UNL1        0.1557
     30 C          64.0345   83.4031   12.8615 C.3     1  UNL1        0.0177
     31 C          63.4874   83.8861   11.5510 C.3     1  UNL1        0.0177
     32 C          63.3525   85.1152   14.2342 C.3     1  UNL1        0.4048
     33 F          63.4191   85.5293   15.6745 F       1  UNL1       -0.1695
     34 F          64.6047   85.8918   13.9531 F       1  UNL1       -0.1695
     35 F          62.1004   84.3387   14.5155 F       1  UNL1       -0.1695
     36 C          61.3485   87.9454   10.1334 C.3     1  UNL1        0.0562
     37 C          61.4952   86.9024    9.0654 C.ar    1  UNL1       -0.0094
     38 C          62.8138   86.2167    8.8629 C.ar    1  UNL1       -0.0034
     39 C          62.9606   85.1738    7.7948 C.ar    1  UNL1       -0.0003
     40 C          61.7888   84.8166    6.9293 C.ar    1  UNL1        0.0008
     41 C          60.4702   85.5023    7.1318 C.ar    1  UNL1        0.0111
     42 C          60.3234   86.5453    8.1998 C.ar    1  UNL1        0.0538
     43 CL         59.0048   87.2310    8.4023 Cl      1  UNL1       -0.0826
@<TRIPOS>BOND
     1     1     2    2
     2     2     3   am
     3     3     5    1
     4     5     6    1
     5     6     7   ar
     6     7     8   ar
     7     8     9   ar
     8     9    10   ar
     9    10    11   ar
    10    11    12   ar
    11    12    13   ar
    12    13    14   ar
    13    14    15    1
    14    15    18    1
    15    18    19   ar
    16    19    20   ar
    17    20    21   ar
    18    21    22   ar
    19    22    23   ar
    20    15    16    1
    21    16    17    1
    22     2    24    1
    23    24    36    1
    24    36    37    1
    25    37    38   ar
    26    38    39   ar
    27    39    40   ar
    28    40    41   ar
    29    41    42   ar
    30    42    43    1
    31    24    25    1
    32    25    26   am
    33    26    27    2
    34    26    29    1
    35    29    32    1
    36    32    33    1
    37    32    34    1
    38    32    35    1
    39    29    30    1
    40    30    31    1
    41    14     6   ar
    42    17    15    1
    43    42    37   ar
    44    31    29    1
    45    13     8   ar
    46    23    18   ar
    47     3     4    1
    48    25    28    1
@<TRIPOS>MOLECULE
*****
 43 48 0 0 0
SMALL
GASTEIGER

@<TRIPOS>ATOM
      1 O          62.3922   90.3670   12.7116 O.2     1  UNL1       -0.2733
      2 C          62.7995   89.8261   11.3732 C.2     1  UNL1        0.2410
      3 N          63.6721   90.6439   10.4677 N.am    1  UNL1       -0.2966
      4 H          63.9394   90.2889    9.5892 H       1  UNL1        0.1499
      5 C          64.1373   92.0026   10.9007 C.3     1  UNL1        0.1543
      6 C          65.0845   92.1382   12.0558 C.ar    1  UNL1        0.1417
      7 N          64.7341   91.9837   13.5061 N.ar    1  UNL1       -0.2276
      8 C          65.9815   92.2021   14.3102 C.ar    1  UNL1        0.1167
      9 C          66.2411   92.1748   15.7872 C.ar    1  UNL1        0.0238
     10 C          67.6221   92.4370   16.3109 C.ar    1  UNL1        0.0223
     11 C          68.7433   92.7263   15.3575 C.ar    1  UNL1        0.1006
     12 N          68.4837   92.7536   13.8804 N.ar    1  UNL1       -0.2252
     13 C          67.1028   92.4915   13.3568 C.ar    1  UNL1        0.1626
     14 N          66.5484   92.4520   11.9635 N.ar    1  UNL1       -0.2990
     15 C          67.3221   92.6853   10.6998 C.3     1  UNL1        0.0898
     16 C          68.2540   92.4357    9.5512 C.3     1  UNL1        0.0273
     17 C          68.0463   91.3760   10.5923 C.3     1  UNL1        0.0273
     18 C          66.8667   94.0755   10.3685 C.ar    1  UNL1       -0.0037
     19 C          66.9792   94.5864    8.9627 C.ar    1  UNL1       -0.0025
     20 C          66.5238   95.9767    8.6313 C.ar    1  UNL1       -0.0003
     21 C          65.9558   96.8560    9.7057 C.ar    1  UNL1       -0.0000
     22 C          65.8433   96.3450   11.1115 C.ar    1  UNL1       -0.0003
     23 C          66.2987   94.9547   11.4429 C.ar    1  UNL1       -0.0025
     24 C          62.3343   88.4673   10.9401 C.3     1  UNL1        0.1530
     25 N          61.7860   88.2675    9.5583 N.am    1  UNL1       -0.2979
     26 C          60.3188   88.4439    9.3008 C.2     1  UNL1        0.2299
     27 O          59.4000   88.8202   10.4251 O.2     1  UNL1       -0.2748
     28 H          62.3891   88.0205    8.8204 H       1  UNL1        0.1498
     29 C          59.7705   88.2440    7.9190 C.3     1  UNL1        0.1557
     30 C          59.2191   88.5645    6.5614 C.3     1  UNL1        0.0177
     31 C          59.5711   89.6730    7.5087 C.3     1  UNL1        0.0177
     32 C          59.7795   86.7457    7.8494 C.3     1  UNL1        0.4048
     33 F          59.7884   85.2473    7.7798 F       1  UNL1       -0.1695
     34 F          61.2066   86.7756    7.3884 F       1  UNL1       -0.1695
     35 F          58.3524   86.7157    8.3104 F       1  UNL1       -0.1695
     36 C          62.4175   87.3085   11.8889 C.3     1  UNL1        0.0562
     37 C          62.8618   85.9641   11.3937 C.ar    1  UNL1       -0.0094
     38 C          62.7458   85.6255    9.9370 C.ar    1  UNL1       -0.0034
     39 C          63.1901   84.2811    9.4418 C.ar    1  UNL1       -0.0003
     40 C          63.7504   83.2754   10.4033 C.ar    1  UNL1        0.0008
     41 C          63.8665   83.6140   11.8599 C.ar    1  UNL1        0.0111
     42 C          63.4222   84.9583   12.3551 C.ar    1  UNL1        0.0538
     43 CL         63.5383   85.2969   13.8118 Cl      1  UNL1       -0.0826
@<TRIPOS>BOND
     1     1     2    2
     2     2     3   am
     3     3     5    1
     4     5     6    1
     5     6     7   ar
     6     7     8   ar
     7     8     9   ar
     8     9    10   ar
     9    10    11   ar
    10    11    12   ar
    11    12    13   ar
    12    13    14   ar
    13    14    15    1
    14    15    18    1
    15    18    19   ar
    16    19    20   ar
    17    20    21   ar
    18    21    22   ar
    19    22    23   ar
    20    15    16    1
    21    16    17    1
    22     2    24    1
    23    24    36    1
    24    36    37    1
    25    37    38   ar
    26    38    39   ar
    27    39    40   ar
    28    40    41   ar
    29    41    42   ar
    30    42    43    1
    31    24    25    1
    32    25    26   am
    33    26    27    2
    34    26    29    1
    35    29    32    1
    36    32    33    1
    37    32    34    1
    38    32    35    1
    39    29    30    1
    40    30    31    1
    41    14     6   ar
    42    17    15    1
    43    42    37   ar
    44    31    29    1
    45    13     8   ar
    46    23    18   ar
    47     3     4    1
    48    25    28    1
@<TRIPOS>MOLECULE
*****
 43 48 0 0 0
SMALL
GASTEIGER

@<TRIPOS>ATOM
      1 O          63.8702   86.4005   13.9861 O.2     1  UNL1       -0.2733
      2 C          63.2387   86.8264   12.6939 C.2     1  UNL1        0.2410
      3 N          63.1386   88.2836   12.3525 N.am    1  UNL1       -0.2966
      4 H          62.7241   88.5631   11.5044 H       1  UNL1        0.1499
      5 C          63.6700   89.3149   13.3033 C.3     1  UNL1        0.1543
      6 C          64.2343   90.6009   12.7763 C.ar    1  UNL1        0.1417
      7 N          64.2555   91.0312   11.3395 N.ar    1  UNL1       -0.2276
      8 C          64.9109   92.3786   11.2688 C.ar    1  UNL1        0.1167
      9 C          65.2077   93.2910   10.1158 C.ar    1  UNL1        0.0238
     10 C          65.8883   94.6059   10.3560 C.ar    1  UNL1        0.0223
     11 C          66.2722   95.0084   11.7490 C.ar    1  UNL1        0.1006
     12 N          65.9754   94.0959   12.9020 N.ar    1  UNL1       -0.2252
     13 C          65.2947   92.7810   12.6618 C.ar    1  UNL1        0.1626
     14 N          64.8766   91.6823   13.5935 N.ar    1  UNL1       -0.2990
     15 C          65.0673   91.6677   15.0813 C.3     1  UNL1        0.0898
     16 C          64.7555   91.5185   16.5409 C.3     1  UNL1        0.0273
     17 C          63.6867   91.2750   15.5171 C.3     1  UNL1        0.0273
     18 C          66.5141   92.0554   15.1623 C.ar    1  UNL1       -0.0037
     19 C          67.5087   91.4416   14.2222 C.ar    1  UNL1       -0.0025
     20 C          68.9555   91.8292   14.3031 C.ar    1  UNL1       -0.0003
     21 C          69.4076   92.8306   15.3243 C.ar    1  UNL1       -0.0000
     22 C          68.4129   93.4444   16.2645 C.ar    1  UNL1       -0.0003
     23 C          66.9661   93.0568   16.1835 C.ar    1  UNL1       -0.0025
     24 C          62.7073   85.7951   11.7430 C.3     1  UNL1        0.1530
     25 N          61.4582   86.0703   10.9595 N.am    1  UNL1       -0.2979
     26 C          61.5092   86.9653    9.7567 C.2     1  UNL1        0.2299
     27 O          62.8093   87.5849    9.3375 O.2     1  UNL1       -0.2748
     28 H          60.6048   85.6637   11.2346 H       1  UNL1        0.1498
     29 C          60.2601   87.2405    8.9732 C.3     1  UNL1        0.1557
     30 C          59.1282   87.0414    8.0093 C.3     1  UNL1        0.0177
     31 C          60.1638   85.9700    8.1816 C.3     1  UNL1        0.0177
     32 C          59.9225   88.6066    9.4926 C.3     1  UNL1        0.4048
     33 F          59.5848   89.9728   10.0121 F       1  UNL1       -0.1695
     34 F          60.3908   89.2128    8.2029 F       1  UNL1       -0.1695
     35 F          59.4541   88.0005   10.7823 F       1  UNL1       -0.1695
     36 C          63.4250   84.4886   11.5757 C.3     1  UNL1        0.0562
     37 C          62.9808   83.2841   12.3516 C.ar    1  UNL1       -0.0094
     38 C          62.4638   83.4421   13.7508 C.ar    1  UNL1       -0.0034
     39 C          62.0196   82.2377   14.5267 C.ar    1  UNL1       -0.0003
     40 C          62.0925   80.8753   13.9035 C.ar    1  UNL1        0.0008
     41 C          62.6095   80.7173   12.5043 C.ar    1  UNL1        0.0111
     42 C          63.0537   81.9217   11.7284 C.ar    1  UNL1        0.0538
     43 CL         63.5707   81.7637   10.3292 Cl      1  UNL1       -0.0826
@<TRIPOS>BOND
     1     1     2    2
     2     2     3   am
     3     3     5    1
     4     5     6    1
     5     6     7   ar
     6     7     8   ar
     7     8     9   ar
     8     9    10   ar
     9    10    11   ar
    10    11    12   ar
    11    12    13   ar
    12    13    14   ar
    13    14    15    1
    14    15    18    1
    15    18    19   ar
    16    19    20   ar
    17    20    21   ar
    18    21    22   ar
    19    22    23   ar
    20    15    16    1
    21    16    17    1
    22     2    24    1
    23    24    36    1
    24    36    37    1
    25    37    38   ar
    26    38    39   ar
    27    39    40   ar
    28    40    41   ar
    29    41    42   ar
    30    42    43    1
    31    24    25    1
    32    25    26   am
    33    26    27    2
    34    26    29    1
    35    29    32    1
    36    32    33    1
    37    32    34    1
    38    32    35    1
    39    29    30    1
    40    30    31    1
    41    14     6   ar
    42    17    15    1
    43    42    37   ar
    44    31    29    1
    45    13     8   ar
    46    23    18   ar
    47     3     4    1
    48    25    28    1
@<TRIPOS>MOLECULE
*****
 43 48 0 0 0
SMALL
GASTEIGER

@<TRIPOS>ATOM
      1 O          63.5026   91.6162   10.1843 O.2     1  UNL1       -0.2733
      2 C          64.0615   91.4394   11.5650 C.2     1  UNL1        0.2410
      3 N          63.5412   90.3461   12.4504 N.am    1  UNL1       -0.2966
      4 H          63.9080   90.2300   13.3566 H       1  UNL1        0.1499
      5 C          62.4620   89.4296   11.9551 C.3     1  UNL1        0.1543
      6 C          62.6252   87.9435   12.0779 C.ar    1  UNL1        0.1417
      7 N          63.5727   87.2337   12.9990 N.ar    1  UNL1       -0.2276
      8 C          63.4027   85.7579   12.7915 C.ar    1  UNL1        0.1167
      9 C          64.0703   84.5721   13.4225 C.ar    1  UNL1        0.0238
     10 C          63.6854   83.1841   13.0041 C.ar    1  UNL1        0.0223
     11 C          62.6329   82.9818   11.9547 C.ar    1  UNL1        0.1006
     12 N          61.9653   84.1675   11.3236 N.ar    1  UNL1       -0.2252
     13 C          62.3502   85.5556   11.7421 C.ar    1  UNL1        0.1626
     14 N          61.8697   86.9064   11.3010 N.ar    1  UNL1       -0.2990
     15 C          60.8183   87.1732   10.2650 C.3     1  UNL1        0.0898
     16 C          59.5738   87.7154    9.6269 C.3     1  UNL1        0.0273
     17 C          59.8973   88.0591   11.0507 C.3     1  UNL1        0.0273
     18 C          61.3740   86.3800    9.1196 C.ar    1  UNL1       -0.0037
     19 C          60.4571   85.8612    8.0519 C.ar    1  UNL1       -0.0025
     20 C          61.0128   85.0680    6.9064 C.ar    1  UNL1       -0.0003
     21 C          62.4854   84.7936    6.8288 C.ar    1  UNL1       -0.0000
     22 C          63.4024   85.3125    7.8966 C.ar    1  UNL1       -0.0003
     23 C          62.8467   86.1056    9.0420 C.ar    1  UNL1       -0.0025
     24 C          65.1407   92.3559   12.0604 C.3     1  UNL1        0.1530
     25 N          65.9627   91.9702   13.2543 N.am    1  UNL1       -0.2979
     26 C          66.6442   93.0291   14.0695 C.2     1  UNL1        0.2299
     27 O          66.5037   94.4736   13.6907 O.2     1  UNL1       -0.2748
     28 H          66.0549   91.0221   13.5030 H       1  UNL1        0.1498
     29 C          67.4662   92.6433   15.2635 C.3     1  UNL1        0.1557
     30 C          67.8162   92.2824   16.6766 C.3     1  UNL1        0.0177
     31 C          66.3929   92.5808   16.3094 C.3     1  UNL1        0.0177
     32 C          68.8250   92.5719   14.6322 C.3     1  UNL1        0.4048
     33 F          70.1839   92.5005   14.0009 F       1  UNL1       -0.1695
     34 F          68.3571   91.4513   13.7517 F       1  UNL1       -0.1695
     35 F          69.2929   93.6925   15.5126 F       1  UNL1       -0.1695
     36 C          65.3979   93.6581   11.3618 C.3     1  UNL1        0.0562
     37 C          66.4221   93.7332   10.2684 C.ar    1  UNL1       -0.0094
     38 C          67.3420   92.5744   10.0216 C.ar    1  UNL1       -0.0034
     39 C          68.3662   92.6494    8.9283 C.ar    1  UNL1       -0.0003
     40 C          68.4706   93.8833    8.0819 C.ar    1  UNL1        0.0008
     41 C          67.5507   95.0422    8.3287 C.ar    1  UNL1        0.0111
     42 C          66.5265   94.9671    9.4220 C.ar    1  UNL1        0.0538
     43 CL         65.6067   96.1260    9.6688 Cl      1  UNL1       -0.0826
@<TRIPOS>BOND
     1     1     2    2
     2     2     3   am
     3     3     5    1
     4     5     6    1
     5     6     7   ar
     6     7     8   ar
     7     8     9   ar
     8     9    10   ar
     9    10    11   ar
    10    11    12   ar
    11    12    13   ar
    12    13    14   ar
    13    14    15    1
    14    15    18    1
    15    18    19   ar
    16    19    20   ar
    17    20    21   ar
    18    21    22   ar
    19    22    23   ar
    20    15    16    1
    21    16    17    1
    22     2    24    1
    23    24    36    1
    24    36    37    1
    25    37    38   ar
    26    38    39   ar
    27    39    40   ar
    28    40    41   ar
    29    41    42   ar
    30    42    43    1
    31    24    25    1
    32    25    26   am
    33    26    27    2
    34    26    29    1
    35    29    32    1
    36    32    33    1
    37    32    34    1
    38    32    35    1
    39    29    30    1
    40    30    31    1
    41    14     6   ar
    42    17    15    1
    43    42    37   ar
    44    31    29    1
    45    13     8   ar
    46    23    18   ar
    47     3     4    1
    48    25    28    1
@<TRIPOS>MOLECULE
*****
 43 48 0 0 0
SMALL
GASTEIGER

@<TRIPOS>ATOM
      1 O          63.6972   91.5533   13.5989 O.2     1  UNL1       -0.2733
      2 C          64.2409   91.5664   12.2011 C.2     1  UNL1        0.2410
      3 N          63.5881   90.7379   11.1346 N.am    1  UNL1       -0.2966
      4 H          63.9450   90.7465   10.2171 H       1  UNL1        0.1499
      5 C          62.3915   89.8963   11.4660 C.3     1  UNL1        0.1543
      6 C          62.5639   88.4417   11.7891 C.ar    1  UNL1        0.1417
      7 N          63.5200   87.8688   12.7930 N.ar    1  UNL1       -0.2276
      8 C          63.3574   86.3777   12.7894 C.ar    1  UNL1        0.1167
      9 C          64.0350   85.2923   13.5723 C.ar    1  UNL1        0.0238
     10 C          63.6560   83.8583   13.3491 C.ar    1  UNL1        0.0223
     11 C          62.5994   83.5096   12.3431 C.ar    1  UNL1        0.1006
     12 N          61.9219   84.5949   11.5602 N.ar    1  UNL1       -0.2252
     13 C          62.3009   86.0290   11.7834 C.ar    1  UNL1        0.1626
     14 N          61.8105   87.3046   11.1652 N.ar    1  UNL1       -0.2990
     15 C          60.7523   87.4225   10.1085 C.3     1  UNL1        0.0898
     16 C          59.4888   87.8462    9.4202 C.3     1  UNL1        0.0273
     17 C          59.7933   88.3443   10.8019 C.3     1  UNL1        0.0273
     18 C          61.3438   86.5416    9.0483 C.ar    1  UNL1       -0.0037
     19 C          60.4687   85.9756    7.9695 C.ar    1  UNL1       -0.0025
     20 C          61.0601   85.0947    6.9091 C.ar    1  UNL1       -0.0003
     21 C          62.5266   84.7798    6.9277 C.ar    1  UNL1       -0.0000
     22 C          63.4017   85.3458    8.0066 C.ar    1  UNL1       -0.0003
     23 C          62.8102   86.2267    9.0669 C.ar    1  UNL1       -0.0025
     24 C          65.4376   92.4080   11.8696 C.3     1  UNL1        0.1530
     25 N          66.3057   92.9435   12.9694 N.am    1  UNL1       -0.2979
     26 C          66.8062   92.0249   14.0445 C.2     1  UNL1        0.2299
     27 O          66.4386   90.5709   14.0197 O.2     1  UNL1       -0.2748
     28 H          66.5471   93.8979   12.9856 H       1  UNL1        0.1498
     29 C          67.6744   92.5604   15.1443 C.3     1  UNL1        0.1557
     30 C          68.8922   93.0660   15.8592 C.3     1  UNL1        0.0177
     31 C          68.9830   92.6604   14.4179 C.3     1  UNL1        0.0177
     32 C          66.6673   92.6464   16.2527 C.3     1  UNL1        0.4048
     33 F          65.6602   92.7324   17.3610 F       1  UNL1       -0.1695
     34 F          67.6393   91.9888   17.1869 F       1  UNL1       -0.1695
     35 F          65.6953   93.3040   15.3185 F       1  UNL1       -0.1695
     36 C          65.7660   92.7141   10.4384 C.3     1  UNL1        0.0562
     37 C          66.2208   94.0901   10.0509 C.ar    1  UNL1       -0.0094
     38 C          65.4716   95.2934   10.5415 C.ar    1  UNL1       -0.0034
     39 C          65.9263   96.6693   10.1541 C.ar    1  UNL1       -0.0003
     40 C          67.1302   96.8418    9.2762 C.ar    1  UNL1        0.0008
     41 C          67.8794   95.6385    8.7856 C.ar    1  UNL1        0.0111
     42 C          67.4247   94.2626    9.1730 C.ar    1  UNL1        0.0538
     43 CL         68.1739   93.0592    8.6825 Cl      1  UNL1       -0.0826
@<TRIPOS>BOND
     1     1     2    2
     2     2     3   am
     3     3     5    1
     4     5     6    1
     5     6     7   ar
     6     7     8   ar
     7     8     9   ar
     8     9    10   ar
     9    10    11   ar
    10    11    12   ar
    11    12    13   ar
    12    13    14   ar
    13    14    15    1
    14    15    18    1
    15    18    19   ar
    16    19    20   ar
    17    20    21   ar
    18    21    22   ar
    19    22    23   ar
    20    15    16    1
    21    16    17    1
    22     2    24    1
    23    24    36    1
    24    36    37    1
    25    37    38   ar
    26    38    39   ar
    27    39    40   ar
    28    40    41   ar
    29    41    42   ar
    30    42    43    1
    31    24    25    1
    32    25    26   am
    33    26    27    2
    34    26    29    1
    35    29    32    1
    36    32    33    1
    37    32    34    1
    38    32    35    1
    39    29    30    1
    40    30    31    1
    41    14     6   ar
    42    17    15    1
    43    42    37   ar
    44    31    29    1
    45    13     8   ar
    46    23    18   ar
    47     3     4    1
    48    25    28    1
@<TRIPOS>MOLECULE
*****
 43 48 0 0 0
SMALL
GASTEIGER

@<TRIPOS>ATOM
      1 O          63.4088   91.5754    9.9249 O.2     1  UNL1       -0.2733
      2 C          64.2366   91.3894   11.1619 C.2     1  UNL1        0.2410
      3 N          63.8521   90.3496   12.1723 N.am    1  UNL1       -0.2966
      4 H          64.3954   90.2275   12.9842 H       1  UNL1        0.1499
      5 C          62.6397   89.4959   11.9458 C.3     1  UNL1        0.1543
      6 C          62.7332   88.0062   12.0937 C.ar    1  UNL1        0.1417
      7 N          63.6547   87.2680   13.0188 N.ar    1  UNL1       -0.2276
      8 C          63.4126   85.7986   12.8393 C.ar    1  UNL1        0.1167
      9 C          64.0292   84.5935   13.4855 C.ar    1  UNL1        0.0238
     10 C          63.5745   83.2184   13.0955 C.ar    1  UNL1        0.0223
     11 C          62.5032   83.0483   12.0594 C.ar    1  UNL1        0.1006
     12 N          61.8866   84.2534   11.4133 N.ar    1  UNL1       -0.2252
     13 C          62.3413   85.6286   11.8032 C.ar    1  UNL1        0.1626
     14 N          61.9214   86.9929   11.3424 N.ar    1  UNL1       -0.2990
     15 C          60.8737   87.2915   10.3114 C.3     1  UNL1        0.0898
     16 C          59.6461   87.8754    9.6774 C.3     1  UNL1        0.0273
     17 C          59.9916   88.2165   11.0966 C.3     1  UNL1        0.0273
     18 C          61.3919   86.4703    9.1681 C.ar    1  UNL1       -0.0037
     19 C          60.4478   85.9716    8.1146 C.ar    1  UNL1       -0.0025
     20 C          60.9659   85.1503    6.9712 C.ar    1  UNL1       -0.0003
     21 C          62.4281   84.8279    6.8815 C.ar    1  UNL1       -0.0000
     22 C          63.3722   85.3266    7.9351 C.ar    1  UNL1       -0.0003
     23 C          62.8541   86.1478    9.0784 C.ar    1  UNL1       -0.0025
     24 C          65.4491   92.2431   11.3884 C.3     1  UNL1        0.1530
     25 N          65.4722   93.6592   10.8944 N.am    1  UNL1       -0.2979
     26 C          66.4799   94.0782    9.8653 C.2     1  UNL1        0.2299
     27 O          67.4645   93.0811    9.3303 O.2     1  UNL1       -0.2748
     28 H          64.8259   94.3136   11.2455 H       1  UNL1        0.1498
     29 C          66.5030   95.4943    9.3713 C.3     1  UNL1        0.1557
     30 C          66.7759   96.6740    8.4860 C.3     1  UNL1        0.0177
     31 C          67.2305   95.3055    8.0732 C.3     1  UNL1        0.0177
     32 C          65.7835   96.1750   10.4978 C.3     1  UNL1        0.4048
     33 F          65.0640   96.8556   11.6244 F       1  UNL1       -0.1695
     34 F          64.5727   96.3360    9.6272 F       1  UNL1       -0.1695
     35 F          66.9942   96.0139   11.3684 F       1  UNL1       -0.1695
     36 C          66.6384   91.6807   12.1090 C.3     1  UNL1        0.0562
     37 C          66.8687   92.0169   13.5526 C.ar    1  UNL1       -0.0094
     38 C          65.7042   92.3295   14.4449 C.ar    1  UNL1       -0.0034
     39 C          65.9346   92.6658   15.8884 C.ar    1  UNL1       -0.0003
     40 C          67.3294   92.6894   16.4396 C.ar    1  UNL1        0.0008
     41 C          68.4939   92.3768   15.5473 C.ar    1  UNL1        0.0111
     42 C          68.2636   92.0405   14.1038 C.ar    1  UNL1        0.0538
     43 CL         69.4281   91.7279   13.2115 Cl      1  UNL1       -0.0826
@<TRIPOS>BOND
     1     1     2    2
     2     2     3   am
     3     3     5    1
     4     5     6    1
     5     6     7   ar
     6     7     8   ar
     7     8     9   ar
     8     9    10   ar
     9    10    11   ar
    10    11    12   ar
    11    12    13   ar
    12    13    14   ar
    13    14    15    1
    14    15    18    1
    15    18    19   ar
    16    19    20   ar
    17    20    21   ar
    18    21    22   ar
    19    22    23   ar
    20    15    16    1
    21    16    17    1
    22     2    24    1
    23    24    36    1
    24    36    37    1
    25    37    38   ar
    26    38    39   ar
    27    39    40   ar
    28    40    41   ar
    29    41    42   ar
    30    42    43    1
    31    24    25    1
    32    25    26   am
    33    26    27    2
    34    26    29    1
    35    29    32    1
    36    32    33    1
    37    32    34    1
    38    32    35    1
    39    29    30    1
    40    30    31    1
    41    14     6   ar
    42    17    15    1
    43    42    37   ar
    44    31    29    1
    45    13     8   ar
    46    23    18   ar
    47     3     4    1
    48    25    28    1
@<TRIPOS>MOLECULE
*****
 43 48 0 0 0
SMALL
GASTEIGER

@<TRIPOS>ATOM
      1 O          61.3806   89.2300   11.9425 O.2     1  UNL1       -0.2733
      2 C          62.4075   88.1371   11.9734 C.2     1  UNL1        0.2410
      3 N          63.6276   88.2784   12.8345 N.am    1  UNL1       -0.2966
      4 H          64.3015   87.5610   12.8548 H       1  UNL1        0.1499
      5 C          63.8208   89.5127   13.6646 C.3     1  UNL1        0.1543
      6 C          64.3623   90.7623   13.0359 C.ar    1  UNL1        0.1417
      7 N          64.3009   91.1142   11.5791 N.ar    1  UNL1       -0.2276
      8 C          64.9608   92.4488   11.3964 C.ar    1  UNL1        0.1167
      9 C          65.1951   93.2945   10.1799 C.ar    1  UNL1        0.0238
     10 C          65.8986   94.6131   10.3074 C.ar    1  UNL1        0.0223
     11 C          66.3679   95.0860   11.6513 C.ar    1  UNL1        0.1006
     12 N          66.1336   94.2403   12.8678 N.ar    1  UNL1       -0.2252
     13 C          65.4301   92.9217   12.7403 C.ar    1  UNL1        0.1626
     14 N          65.0602   91.8793   13.7536 N.ar    1  UNL1       -0.2990
     15 C          65.3391   91.9429   15.2260 C.3     1  UNL1        0.0898
     16 C          65.1099   91.8925   16.7075 C.3     1  UNL1        0.0273
     17 C          63.9726   91.6367   15.7636 C.3     1  UNL1        0.0273
     18 C          66.8025   92.2713   15.1999 C.ar    1  UNL1       -0.0037
     19 C          67.7178   91.5434   14.2607 C.ar    1  UNL1       -0.0025
     20 C          69.1813   91.8717   14.2346 C.ar    1  UNL1       -0.0003
     21 C          69.7292   92.9280   15.1478 C.ar    1  UNL1       -0.0000
     22 C          68.8139   93.6559   16.0871 C.ar    1  UNL1       -0.0003
     23 C          67.3505   93.3276   16.1132 C.ar    1  UNL1       -0.0025
     24 C          62.2143   86.9027   11.1432 C.3     1  UNL1        0.1530
     25 N          63.0943   85.7076   11.3603 N.am    1  UNL1       -0.2979
     26 C          62.8365   84.7863   12.5157 C.2     1  UNL1        0.2299
     27 O          61.6987   85.0603   13.4540 O.2     1  UNL1       -0.2748
     28 H          63.8411   85.5278   10.7445 H       1  UNL1        0.1498
     29 C          63.7166   83.5912   12.7328 C.3     1  UNL1        0.1557
     30 C          64.6247   82.6159   13.4213 C.3     1  UNL1        0.0177
     31 C          64.1033   83.8093   14.1656 C.3     1  UNL1        0.0177
     32 C          63.6354   82.9579   11.3755 C.3     1  UNL1        0.4048
     33 F          63.5544   82.3247   10.0180 F       1  UNL1       -0.1695
     34 F          62.2159   82.5569   11.6473 F       1  UNL1       -0.1695
     35 F          65.0550   83.3590   11.1035 F       1  UNL1       -0.1695
     36 C          61.1411   86.8636   10.0960 C.3     1  UNL1        0.0562
     37 C          61.3660   86.1087    8.8194 C.ar    1  UNL1       -0.0094
     38 C          62.6971   85.4722    8.5491 C.ar    1  UNL1       -0.0034
     39 C          62.9220   84.7173    7.2726 C.ar    1  UNL1       -0.0003
     40 C          61.8159   84.5988    6.2665 C.ar    1  UNL1        0.0008
     41 C          60.4848   85.2353    6.5368 C.ar    1  UNL1        0.0111
     42 C          60.2598   85.9902    7.8133 C.ar    1  UNL1        0.0538
     43 CL         58.9288   86.6267    8.0837 Cl      1  UNL1       -0.0826
@<TRIPOS>BOND
     1     1     2    2
     2     2     3   am
     3     3     5    1
     4     5     6    1
     5     6     7   ar
     6     7     8   ar
     7     8     9   ar
     8     9    10   ar
     9    10    11   ar
    10    11    12   ar
    11    12    13   ar
    12    13    14   ar
    13    14    15    1
    14    15    18    1
    15    18    19   ar
    16    19    20   ar
    17    20    21   ar
    18    21    22   ar
    19    22    23   ar
    20    15    16    1
    21    16    17    1
    22     2    24    1
    23    24    36    1
    24    36    37    1
    25    37    38   ar
    26    38    39   ar
    27    39    40   ar
    28    40    41   ar
    29    41    42   ar
    30    42    43    1
    31    24    25    1
    32    25    26   am
    33    26    27    2
    34    26    29    1
    35    29    32    1
    36    32    33    1
    37    32    34    1
    38    32    35    1
    39    29    30    1
    40    30    31    1
    41    14     6   ar
    42    17    15    1
    43    42    37   ar
    44    31    29    1
    45    13     8   ar
    46    23    18   ar
    47     3     4    1
    48    25    28    1
@<TRIPOS>MOLECULE
*****
 43 48 0 0 0
SMALL
GASTEIGER

@<TRIPOS>ATOM
      1 O          62.0715   89.7699   13.1235 O.2     1  UNL1       -0.2733
      2 C          62.8872   89.4013   11.9199 C.2     1  UNL1        0.2410
      3 N          63.8193   90.4055   11.3095 N.am    1  UNL1       -0.2966
      4 H          64.3547   90.1636   10.5195 H       1  UNL1        0.1499
      5 C          63.9358   91.7783   11.9026 C.3     1  UNL1        0.1543
      6 C          65.0388   92.0855   12.8716 C.ar    1  UNL1        0.1417
      7 N          64.9200   92.1010   14.3668 N.ar    1  UNL1       -0.2276
      8 C          66.2620   92.4563   14.9349 C.ar    1  UNL1        0.1167
      9 C          66.7430   92.6203   16.3461 C.ar    1  UNL1        0.0238
     10 C          68.1724   92.9884   16.6133 C.ar    1  UNL1        0.0223
     11 C          69.1207   93.1925   15.4691 C.ar    1  UNL1        0.1006
     12 N          68.6397   93.0285   14.0579 N.ar    1  UNL1       -0.2252
     13 C          67.2103   92.6604   13.7908 C.ar    1  UNL1        0.1626
     14 N          66.4543   92.4313   12.5156 N.ar    1  UNL1       -0.2990
     15 C          67.0154   92.5305   11.1281 C.3     1  UNL1        0.0898
     16 C          67.6782   92.1293    9.8436 C.3     1  UNL1        0.0273
     17 C          67.5031   91.1240   10.9431 C.3     1  UNL1        0.0273
     18 C          66.7225   93.9713   10.8311 C.ar    1  UNL1       -0.0037
     19 C          66.1767   94.8628   11.9067 C.ar    1  UNL1       -0.0025
     20 C          65.8838   96.3037   11.6098 C.ar    1  UNL1       -0.0003
     21 C          66.1369   96.8530   10.2371 C.ar    1  UNL1       -0.0000
     22 C          66.6828   95.9614    9.1613 C.ar    1  UNL1       -0.0003
     23 C          66.9756   94.5206    9.4583 C.ar    1  UNL1       -0.0025
     24 C          62.7708   88.0285   11.3267 C.3     1  UNL1        0.1530
     25 N          62.6770   86.8296   12.2232 N.am    1  UNL1       -0.2979
     26 C          63.5335   86.7428   13.4517 C.2     1  UNL1        0.2299
     27 O          64.4837   87.8550   13.7835 O.2     1  UNL1       -0.2748
     28 H          62.0533   86.0996   12.0054 H       1  UNL1        0.1498
     29 C          63.4397   85.5439   14.3482 C.3     1  UNL1        0.1557
     30 C          63.3618   84.7239   15.6018 C.3     1  UNL1        0.0177
     31 C          63.4528   86.2187   15.6878 C.3     1  UNL1        0.0177
     32 C          63.3939   84.4527   13.3200 C.3     1  UNL1        0.4048
     33 F          63.3483   83.3615   12.2917 F       1  UNL1       -0.1695
     34 F          61.9045   84.3676   13.4765 F       1  UNL1       -0.1695
     35 F          64.8833   84.5378   13.1635 F       1  UNL1       -0.1695
     36 C          62.7481   87.8546    9.8370 C.3     1  UNL1        0.0562
     37 C          61.4838   87.4300    9.1505 C.ar    1  UNL1       -0.0094
     38 C          60.2500   88.2760    9.2608 C.ar    1  UNL1       -0.0034
     39 C          58.9857   87.8515    8.5744 C.ar    1  UNL1       -0.0003
     40 C          58.9551   86.5809    7.7777 C.ar    1  UNL1        0.0008
     41 C          60.1889   85.7349    7.6675 C.ar    1  UNL1        0.0111
     42 C          61.4532   86.1595    8.3539 C.ar    1  UNL1        0.0538
     43 CL         62.6869   85.3134    8.2436 Cl      1  UNL1       -0.0826
@<TRIPOS>BOND
     1     1     2    2
     2     2     3   am
     3     3     5    1
     4     5     6    1
     5     6     7   ar
     6     7     8   ar
     7     8     9   ar
     8     9    10   ar
     9    10    11   ar
    10    11    12   ar
    11    12    13   ar
    12    13    14   ar
    13    14    15    1
    14    15    18    1
    15    18    19   ar
    16    19    20   ar
    17    20    21   ar
    18    21    22   ar
    19    22    23   ar
    20    15    16    1
    21    16    17    1
    22     2    24    1
    23    24    36    1
    24    36    37    1
    25    37    38   ar
    26    38    39   ar
    27    39    40   ar
    28    40    41   ar
    29    41    42   ar
    30    42    43    1
    31    24    25    1
    32    25    26   am
    33    26    27    2
    34    26    29    1
    35    29    32    1
    36    32    33    1
    37    32    34    1
    38    32    35    1
    39    29    30    1
    40    30    31    1
    41    14     6   ar
    42    17    15    1
    43    42    37   ar
    44    31    29    1
    45    13     8   ar
    46    23    18   ar
    47     3     4    1
    48    25    28    1
@<TRIPOS>MOLECULE
*****
 43 48 0 0 0
SMALL
GASTEIGER

@<TRIPOS>ATOM
      1 O          63.5324   91.2597   10.2315 O.2     1  UNL1       -0.2733
      2 C          64.3771   91.1163   11.4627 C.2     1  UNL1        0.2410
      3 N          64.0010   90.1192   12.5183 N.am    1  UNL1       -0.2966
      4 H          64.5555   90.0251   13.3264 H       1  UNL1        0.1499
      5 C          62.7803   89.2655   12.3428 C.3     1  UNL1        0.1543
      6 C          62.8919   87.7718   12.4219 C.ar    1  UNL1        0.1417
      7 N          63.5616   86.9944   13.5161 N.ar    1  UNL1       -0.2276
      8 C          63.4371   85.5353   13.1912 C.ar    1  UNL1        0.1167
      9 C          63.9071   84.3040   13.9073 C.ar    1  UNL1        0.0238
     10 C          63.6305   82.9482   13.3283 C.ar    1  UNL1        0.0223
     11 C          62.8839   82.8237   12.0333 C.ar    1  UNL1        0.1006
     12 N          62.4139   84.0551   11.3172 N.ar    1  UNL1       -0.2252
     13 C          62.6905   85.4109   11.8962 C.ar    1  UNL1        0.1626
     14 N          62.3536   86.7931   11.4208 N.ar    1  UNL1       -0.2990
     15 C          61.6090   87.1363   10.1647 C.3     1  UNL1        0.0898
     16 C          61.1729   87.0996    8.7299 C.3     1  UNL1        0.0273
     17 C          62.2386   86.1616    9.2140 C.3     1  UNL1        0.0273
     18 C          60.7208   88.2302   10.6790 C.ar    1  UNL1       -0.0037
     19 C          60.7622   89.5896   10.0463 C.ar    1  UNL1       -0.0025
     20 C          59.8740   90.6836   10.5606 C.ar    1  UNL1       -0.0003
     21 C          58.9445   90.4180   11.7076 C.ar    1  UNL1       -0.0000
     22 C          58.9032   89.0586   12.3402 C.ar    1  UNL1       -0.0003
     23 C          59.7913   87.9647   11.8259 C.ar    1  UNL1       -0.0025
     24 C          65.5980   91.9700   11.6382 C.3     1  UNL1        0.1530
     25 N          66.0577   92.3471   13.0153 N.am    1  UNL1       -0.2979
     26 C          67.4761   92.0883   13.4296 C.2     1  UNL1        0.2299
     27 O          68.4345   91.4526   12.4667 O.2     1  UNL1       -0.2748
     28 H          65.4287   92.7643   13.6473 H       1  UNL1        0.1498
     29 C          67.9359   92.4653   14.8067 C.3     1  UNL1        0.1557
     30 C          68.8475   92.8719   15.9263 C.3     1  UNL1        0.0177
     31 C          69.3967   92.6814   14.5435 C.3     1  UNL1        0.0177
     32 C          66.6347   92.3802   15.5481 C.3     1  UNL1        0.4048
     33 F          65.3335   92.2950   16.2896 F       1  UNL1       -0.1695
     34 F          66.7203   93.8435   15.8665 F       1  UNL1       -0.1695
     35 F          66.5490   90.9169   15.2298 F       1  UNL1       -0.1695
     36 C          66.3589   92.4467   10.4367 C.3     1  UNL1        0.0562
     37 C          66.5449   93.9164   10.2012 C.ar    1  UNL1       -0.0094
     38 C          65.7409   94.9095   10.9870 C.ar    1  UNL1       -0.0034
     39 C          65.9268   96.3792   10.7515 C.ar    1  UNL1       -0.0003
     40 C          66.9168   96.8557    9.7303 C.ar    1  UNL1        0.0008
     41 C          67.7208   95.8627    8.9446 C.ar    1  UNL1        0.0111
     42 C          67.5349   94.3930    9.1801 C.ar    1  UNL1        0.0538
     43 CL         68.3389   93.3999    8.3943 Cl      1  UNL1       -0.0826
@<TRIPOS>BOND
     1     1     2    2
     2     2     3   am
     3     3     5    1
     4     5     6    1
     5     6     7   ar
     6     7     8   ar
     7     8     9   ar
     8     9    10   ar
     9    10    11   ar
    10    11    12   ar
    11    12    13   ar
    12    13    14   ar
    13    14    15    1
    14    15    18    1
    15    18    19   ar
    16    19    20   ar
    17    20    21   ar
    18    21    22   ar
    19    22    23   ar
    20    15    16    1
    21    16    17    1
    22     2    24    1
    23    24    36    1
    24    36    37    1
    25    37    38   ar
    26    38    39   ar
    27    39    40   ar
    28    40    41   ar
    29    41    42   ar
    30    42    43    1
    31    24    25    1
    32    25    26   am
    33    26    27    2
    34    26    29    1
    35    29    32    1
    36    32    33    1
    37    32    34    1
    38    32    35    1
    39    29    30    1
    40    30    31    1
    41    14     6   ar
    42    17    15    1
    43    42    37   ar
    44    31    29    1
    45    13     8   ar
    46    23    18   ar
    47     3     4    1
    48    25    28    1
