@<TRIPOS>MOLECULE
*****
 28 31 0 0 0
SMALL
GASTEIGER

@<TRIPOS>ATOM
      1 C          60.9809   88.8879    9.7809 C.2     1  UNL1        0.2252
      2 O          60.3150   89.7166    8.7227 O.2     1  UNL1       -0.2750
      3 N          62.1731   89.4261   10.5152 N.am    1  UNL1       -0.3004
      4 H          62.6102   88.8822   11.2097 H       1  UNL1        0.1497
      5 C          60.4547   87.5211   10.1048 C.3     1  UNL1        0.1154
      6 C          61.3710   86.3557    8.7513 C.3     1  UNL1        0.0335
      7 C          61.4026   86.3678   10.2509 C.3     1  UNL1        0.1377
      8 C          62.3439   85.2120   10.0836 C.3     1  UNL1        0.0613
      9 C          62.7592   84.7508   11.4492 C.3     1  UNL1        0.1290
     10 C          63.0828   84.4036   12.8722 C.3     1  UNL1        0.0305
     11 C          64.0184   83.2706   13.1735 C.3     1  UNL1        0.0025
     12 C          64.6304   82.4848   12.0519 C.3     1  UNL1        0.0002
     13 C          64.3068   82.8320   10.6289 C.3     1  UNL1        0.0025
     14 C          63.3712   83.9650   10.3276 C.3     1  UNL1        0.0305
     15 O          62.0745   85.6217   12.4605 O.3     1  UNL1       -0.2256
     16 O          61.2361   86.6210   11.7199 O.3     1  UNL1       -0.2251
     17 C          62.6993   90.7929   10.1913 C.3     1  UNL1        0.1164
     18 C          63.7790   91.4006   11.0367 C.ar    1  UNL1        0.0006
     19 C          64.8977   92.1629   10.3906 C.ar    1  UNL1        0.0007
     20 C          65.9775   92.7707   11.2360 C.ar    1  UNL1        0.0404
     21 C          65.9386   92.6161   12.7276 C.ar    1  UNL1        0.1791
     22 C          64.8199   91.8538   13.3736 C.ar    1  UNL1        0.1730
     23 C          63.7401   91.2461   12.5283 C.ar    1  UNL1        0.0375
     24 O          64.5922   91.5831   14.8313 O.3     1  UNL1       -0.4675
     25 C          65.4271   92.0078   16.0030 C.3     1  UNL1        0.2352
     26 C          66.6957   92.8081   16.0063 C.2     1  UNL1        0.0613
     27 C          67.4429   93.3814   14.8388 C.2     1  UNL1        0.1788
     28 O          67.1060   93.2959   13.3796 O.3     1  UNL1       -0.4476
@<TRIPOS>BOND
     1     6     7    1
     2     7     5    1
     3     5     1    1
     4     1     2    2
     5     1     3   am
     6     3    17    1
     7    17    18    1
     8    18    19   ar
     9    19    20   ar
    10    20    21   ar
    11    21    22   ar
    12    22    23   ar
    13    22    24    1
    14    24    25    1
    15    25    26    1
    16    26    27    2
    17    27    28    1
    18     7     8    1
    19     8     9    1
    20     9    10    1
    21    10    11    1
    22    11    12    1
    23    12    13    1
    24    13    14    1
    25     9    15    1
    26    15    16    1
    27    16     7    1
    28    23    18   ar
    29    14     9    1
    30    28    21    1
    31     3     4    1
@<TRIPOS>MOLECULE
*****
 28 31 0 0 0
SMALL
GASTEIGER

@<TRIPOS>ATOM
      1 C          63.9241   87.5893   15.2088 C.2     1  UNL1        0.2252
      2 O          63.4833   88.7542   16.0445 O.2     1  UNL1       -0.2750
      3 N          64.0167   87.7281   13.7180 N.am    1  UNL1       -0.3004
      4 H          64.3060   86.9635   13.1695 H       1  UNL1        0.1497
      5 C          64.2723   86.2855   15.8637 C.3     1  UNL1        0.1154
      6 C          62.6376   85.3051   16.4929 C.3     1  UNL1        0.0335
      7 C          63.6226   85.0159   15.3992 C.3     1  UNL1        0.1377
      8 C          62.7670   83.8067   15.1633 C.3     1  UNL1        0.0613
      9 C          63.3589   83.0355   14.0210 C.3     1  UNL1        0.1290
     10 C          64.0619   82.3754   12.8720 C.3     1  UNL1        0.0305
     11 C          63.5263   81.0963   12.3001 C.3     1  UNL1        0.0025
     12 C          62.2879   80.4772   12.8773 C.3     1  UNL1        0.0002
     13 C          61.5850   81.1374   14.0263 C.3     1  UNL1        0.0025
     14 C          62.1205   82.4165   14.5981 C.3     1  UNL1        0.0305
     15 O          64.5804   83.7683   13.5508 O.3     1  UNL1       -0.2256
     16 O          64.7434   84.9921   14.4027 O.3     1  UNL1       -0.2251
     17 C          63.6685   89.0319   13.0631 C.3     1  UNL1        0.1164
     18 C          62.7190   89.0579   11.9022 C.ar    1  UNL1        0.0006
     19 C          62.1531   90.3627   11.4254 C.ar    1  UNL1        0.0007
     20 C          61.2035   90.3888   10.2644 C.ar    1  UNL1        0.0404
     21 C          60.8200   89.1101    9.5803 C.ar    1  UNL1        0.1791
     22 C          61.3859   87.8055   10.0572 C.ar    1  UNL1        0.1730
     23 C          62.3354   87.7793   11.2181 C.ar    1  UNL1        0.0375
     24 O          61.1370   86.4265    9.5217 O.3     1  UNL1       -0.4675
     25 C          60.2606   86.0119    8.3770 C.3     1  UNL1        0.2352
     26 C          59.4169   86.8736    7.4853 C.2     1  UNL1        0.0613
     27 C          59.2409   88.3629    7.5178 C.2     1  UNL1        0.1788
     28 O          59.8654   89.3583    8.4502 O.3     1  UNL1       -0.4476
@<TRIPOS>BOND
     1     6     7    1
     2     7     5    1
     3     5     1    1
     4     1     2    2
     5     1     3   am
     6     3    17    1
     7    17    18    1
     8    18    19   ar
     9    19    20   ar
    10    20    21   ar
    11    21    22   ar
    12    22    23   ar
    13    22    24    1
    14    24    25    1
    15    25    26    1
    16    26    27    2
    17    27    28    1
    18     7     8    1
    19     8     9    1
    20     9    10    1
    21    10    11    1
    22    11    12    1
    23    12    13    1
    24    13    14    1
    25     9    15    1
    26    15    16    1
    27    16     7    1
    28    23    18   ar
    29    14     9    1
    30    28    21    1
    31     3     4    1
@<TRIPOS>MOLECULE
*****
 28 31 0 0 0
SMALL
GASTEIGER

@<TRIPOS>ATOM
      1 C          60.7912   88.7690   10.1763 C.2     1  UNL1        0.2252
      2 O          59.8029   89.7043   10.8074 O.2     1  UNL1       -0.2750
      3 N          62.1976   89.2243    9.9214 N.am    1  UNL1       -0.3004
      4 H          62.8463   88.6104    9.5072 H       1  UNL1        0.1497
      5 C          60.3733   87.3783    9.8002 C.3     1  UNL1        0.1154
      6 C          61.2692   86.1484    8.4909 C.3     1  UNL1        0.0335
      7 C          61.3237   86.2331    9.9875 C.3     1  UNL1        0.1377
      8 C          62.2628   85.0702    9.8621 C.3     1  UNL1        0.0613
      9 C          62.6990   84.6756   11.2419 C.3     1  UNL1        0.1290
     10 C          63.0444   84.3977   12.6750 C.3     1  UNL1        0.0305
     11 C          63.9849   83.2803   13.0166 C.3     1  UNL1        0.0025
     12 C          64.5800   82.4407   11.9252 C.3     1  UNL1        0.0002
     13 C          64.2346   82.7187   10.4922 C.3     1  UNL1        0.0025
     14 C          63.2941   83.8361   10.1506 C.3     1  UNL1        0.0305
     15 O          62.0295   85.5948   12.2202 O.3     1  UNL1       -0.2256
     16 O          61.1796   86.5573   11.4449 O.3     1  UNL1       -0.2251
     17 C          62.6155   90.6149   10.2976 C.3     1  UNL1        0.1164
     18 C          63.4439   90.8423   11.5272 C.ar    1  UNL1        0.0006
     19 C          63.3977   89.8551   12.6557 C.ar    1  UNL1        0.0007
     20 C          64.2260   90.0824   13.8854 C.ar    1  UNL1        0.0404
     21 C          65.1006   91.2969   13.9867 C.ar    1  UNL1        0.1791
     22 C          65.1467   92.2840   12.8583 C.ar    1  UNL1        0.1730
     23 C          64.3184   92.0567   11.6286 C.ar    1  UNL1        0.0375
     24 O          65.9442   93.5503   12.7555 O.3     1  UNL1       -0.4675
     25 C          66.8925   94.1422   13.7558 C.3     1  UNL1        0.2352
     26 C          67.2774   93.6139   15.1058 C.2     1  UNL1        0.0613
     27 C          66.8092   92.3633   15.7891 C.2     1  UNL1        0.1788
     28 O          65.8404   91.3321   15.2911 O.3     1  UNL1       -0.4476
@<TRIPOS>BOND
     1     6     7    1
     2     7     5    1
     3     5     1    1
     4     1     2    2
     5     1     3   am
     6     3    17    1
     7    17    18    1
     8    18    19   ar
     9    19    20   ar
    10    20    21   ar
    11    21    22   ar
    12    22    23   ar
    13    22    24    1
    14    24    25    1
    15    25    26    1
    16    26    27    2
    17    27    28    1
    18     7     8    1
    19     8     9    1
    20     9    10    1
    21    10    11    1
    22    11    12    1
    23    12    13    1
    24    13    14    1
    25     9    15    1
    26    15    16    1
    27    16     7    1
    28    23    18   ar
    29    14     9    1
    30    28    21    1
    31     3     4    1
@<TRIPOS>MOLECULE
*****
 28 31 0 0 0
SMALL
GASTEIGER

@<TRIPOS>ATOM
      1 C          61.0352   88.6946    9.8946 C.2     1  UNL1        0.2252
      2 O          59.7237   87.9667    9.8911 O.2     1  UNL1       -0.2750
      3 N          62.2740   88.0106    9.3970 N.am    1  UNL1       -0.3004
      4 H          63.1348   88.4883    9.3994 H       1  UNL1        0.1497
      5 C          61.1079   90.1065   10.3957 C.3     1  UNL1        0.1154
      6 C          61.5274   89.7987   12.3345 C.3     1  UNL1        0.0335
      7 C          62.2591   90.5391   11.2545 C.3     1  UNL1        0.1377
      8 C          63.2574   90.8170   12.3390 C.3     1  UNL1        0.0613
      9 C          64.3654   91.6387   11.7498 C.3     1  UNL1        0.1290
     10 C          65.3951   92.4534   11.0245 C.3     1  UNL1        0.0305
     11 C          66.6043   92.9567   11.7556 C.3     1  UNL1        0.0025
     12 C          66.7837   92.6454   13.2120 C.3     1  UNL1        0.0002
     13 C          65.7539   91.8308   13.9372 C.3     1  UNL1        0.0025
     14 C          64.5448   91.3275   13.2061 C.3     1  UNL1        0.0305
     15 O          64.0518   91.8687   10.3011 O.3     1  UNL1       -0.2256
     16 O          62.7501   91.1892    9.9950 O.3     1  UNL1       -0.2251
     17 C          62.2012   86.5986    8.8959 C.3     1  UNL1        0.1164
     18 C          62.6155   85.4646    9.7861 C.ar    1  UNL1        0.0006
     19 C          63.3741   84.3027    9.2165 C.ar    1  UNL1        0.0007
     20 C          63.7885   83.1686   10.1067 C.ar    1  UNL1        0.0404
     21 C          63.4442   83.1966   11.5664 C.ar    1  UNL1        0.1791
     22 C          62.6857   84.3586   12.1359 C.ar    1  UNL1        0.1730
     23 C          62.2713   85.4926   11.2458 C.ar    1  UNL1        0.0375
     24 O          62.2443   84.5838   13.5518 O.3     1  UNL1       -0.4675
     25 C          62.4526   83.7026   14.7477 C.3     1  UNL1        0.2352
     26 C          63.1536   82.3788   14.8231 C.2     1  UNL1        0.0613
     27 C          63.8195   81.6089   13.7214 C.2     1  UNL1        0.1788
     28 O          63.9488   81.9729   12.2720 O.3     1  UNL1       -0.4476
@<TRIPOS>BOND
     1     6     7    1
     2     7     5    1
     3     5     1    1
     4     1     2    2
     5     1     3   am
     6     3    17    1
     7    17    18    1
     8    18    19   ar
     9    19    20   ar
    10    20    21   ar
    11    21    22   ar
    12    22    23   ar
    13    22    24    1
    14    24    25    1
    15    25    26    1
    16    26    27    2
    17    27    28    1
    18     7     8    1
    19     8     9    1
    20     9    10    1
    21    10    11    1
    22    11    12    1
    23    12    13    1
    24    13    14    1
    25     9    15    1
    26    15    16    1
    27    16     7    1
    28    23    18   ar
    29    14     9    1
    30    28    21    1
    31     3     4    1
@<TRIPOS>MOLECULE
*****
 28 31 0 0 0
SMALL
GASTEIGER

@<TRIPOS>ATOM
      1 C          63.4733   89.4088   13.8392 C.2     1  UNL1        0.2252
      2 O          62.7186   89.7757   15.0825 O.2     1  UNL1       -0.2750
      3 N          64.2502   88.1268   13.7843 N.am    1  UNL1       -0.3004
      4 H          64.7455   87.8860   12.9683 H       1  UNL1        0.1497
      5 C          63.4511   90.3238   12.6509 C.3     1  UNL1        0.1154
      6 C          63.0069   91.3552   10.9870 C.3     1  UNL1        0.0335
      7 C          62.5824   90.0006   11.4716 C.3     1  UNL1        0.1377
      8 C          61.8023   89.9604   10.1910 C.3     1  UNL1        0.0613
      9 C          61.0773   88.6487   10.1307 C.3     1  UNL1        0.1290
     10 C          60.4174   87.3039   10.2096 C.3     1  UNL1        0.0305
     11 C          59.5184   86.8435    9.1006 C.3     1  UNL1        0.0025
     12 C          59.2791   87.7280    7.9129 C.3     1  UNL1        0.0002
     13 C          59.9390   89.0727    7.8341 C.3     1  UNL1        0.0025
     14 C          60.8381   89.5331    8.9430 C.3     1  UNL1        0.0305
     15 O          61.4093   87.8781   11.3741 O.3     1  UNL1       -0.2256
     16 O          62.3395   88.7136   12.2028 O.3     1  UNL1       -0.2251
     17 C          64.2723   87.2117   14.9727 C.3     1  UNL1        0.1164
     18 C          63.7785   85.8014   14.8425 C.ar    1  UNL1        0.0006
     19 C          63.1066   85.1318   16.0045 C.ar    1  UNL1        0.0007
     20 C          62.6127   83.7213   15.8743 C.ar    1  UNL1        0.0404
     21 C          62.7909   82.9806   14.5821 C.ar    1  UNL1        0.1791
     22 C          63.4627   83.6502   13.4203 C.ar    1  UNL1        0.1730
     23 C          63.9566   85.0605   13.5504 C.ar    1  UNL1        0.0375
     24 O          63.7392   83.0967   12.0538 O.3     1  UNL1       -0.4675
     25 C          63.4119   81.7367   11.5118 C.3     1  UNL1        0.2352
     26 C          62.7275   80.5947   12.2024 C.2     1  UNL1        0.0613
     27 C          62.2012   80.5302   13.6056 C.2     1  UNL1        0.1788
     28 O          62.2294   81.5921   14.6647 O.3     1  UNL1       -0.4476
@<TRIPOS>BOND
     1     6     7    1
     2     7     5    1
     3     5     1    1
     4     1     2    2
     5     1     3   am
     6     3    17    1
     7    17    18    1
     8    18    19   ar
     9    19    20   ar
    10    20    21   ar
    11    21    22   ar
    12    22    23   ar
    13    22    24    1
    14    24    25    1
    15    25    26    1
    16    26    27    2
    17    27    28    1
    18     7     8    1
    19     8     9    1
    20     9    10    1
    21    10    11    1
    22    11    12    1
    23    12    13    1
    24    13    14    1
    25     9    15    1
    26    15    16    1
    27    16     7    1
    28    23    18   ar
    29    14     9    1
    30    28    21    1
    31     3     4    1
@<TRIPOS>MOLECULE
*****
 28 31 0 0 0
SMALL
GASTEIGER

@<TRIPOS>ATOM
      1 C          62.9176   84.2748   15.8088 C.2     1  UNL1        0.2252
      2 O          61.6711   83.6440   15.2629 O.2     1  UNL1       -0.2750
      3 N          64.2490   83.9591   15.1941 N.am    1  UNL1       -0.3004
      4 H          65.0672   84.3732   15.5524 H       1  UNL1        0.1497
      5 C          62.8329   85.2212   16.9695 C.3     1  UNL1        0.1154
      6 C          62.5579   86.8102   18.1648 C.3     1  UNL1        0.0335
      7 C          63.0700   86.6875   16.7603 C.3     1  UNL1        0.1377
      8 C          63.2001   88.1794   16.8447 C.3     1  UNL1        0.0613
      9 C          63.7429   88.6722   15.5361 C.3     1  UNL1        0.1290
     10 C          64.2870   89.0150   14.1809 C.3     1  UNL1        0.0305
     11 C          64.5740   90.4442   13.8275 C.3     1  UNL1        0.0025
     12 C          64.3170   91.5307   14.8294 C.3     1  UNL1        0.0002
     13 C          63.7730   91.1879   16.1845 C.3     1  UNL1        0.0025
     14 C          63.4859   89.7586   16.5379 C.3     1  UNL1        0.0305
     15 O          63.9484   87.4847   14.6429 O.3     1  UNL1       -0.2256
     16 O          63.5324   86.2581   15.3995 O.3     1  UNL1       -0.2251
     17 C          64.3338   83.0127   14.0334 C.3     1  UNL1        0.1164
     18 C          63.9455   83.4738   12.6599 C.ar    1  UNL1        0.0006
     19 C          64.6227   82.8924   11.4543 C.ar    1  UNL1        0.0007
     20 C          64.2345   83.3535   10.0807 C.ar    1  UNL1        0.0404
     21 C          63.1691   84.3960    9.9127 C.ar    1  UNL1        0.1791
     22 C          62.4920   84.9773   11.1183 C.ar    1  UNL1        0.1730
     23 C          62.8801   84.5163   12.4919 C.ar    1  UNL1        0.0375
     24 O          61.4136   86.0186   11.1741 O.3     1  UNL1       -0.4675
     25 C          60.7461   86.7355   10.0381 C.3     1  UNL1        0.2352
     26 C          60.9921   86.5883    8.5658 C.2     1  UNL1        0.0613
     27 C          61.9663   85.6878    7.8658 C.2     1  UNL1        0.1788
     28 O          62.9352   84.7122    8.4652 O.3     1  UNL1       -0.4476
@<TRIPOS>BOND
     1     6     7    1
     2     7     5    1
     3     5     1    1
     4     1     2    2
     5     1     3   am
     6     3    17    1
     7    17    18    1
     8    18    19   ar
     9    19    20   ar
    10    20    21   ar
    11    21    22   ar
    12    22    23   ar
    13    22    24    1
    14    24    25    1
    15    25    26    1
    16    26    27    2
    17    27    28    1
    18     7     8    1
    19     8     9    1
    20     9    10    1
    21    10    11    1
    22    11    12    1
    23    12    13    1
    24    13    14    1
    25     9    15    1
    26    15    16    1
    27    16     7    1
    28    23    18   ar
    29    14     9    1
    30    28    21    1
    31     3     4    1
@<TRIPOS>MOLECULE
*****
 28 31 0 0 0
SMALL
GASTEIGER

@<TRIPOS>ATOM
      1 C          63.9312   87.4476   14.5811 C.2     1  UNL1        0.2252
      2 O          63.4845   88.5007   15.5512 O.2     1  UNL1       -0.2750
      3 N          63.5161   87.5290   13.1419 N.am    1  UNL1       -0.3004
      4 H          63.8094   86.8378   12.5052 H       1  UNL1        0.1497
      5 C          64.7931   86.3130   15.0501 C.3     1  UNL1        0.1154
      6 C          65.9331   84.8705   14.2443 C.3     1  UNL1        0.0335
      7 C          64.4823   84.9090   14.6233 C.3     1  UNL1        0.1377
      8 C          64.4746   83.4970   14.1173 C.3     1  UNL1        0.0613
      9 C          63.0841   82.9563   14.2728 C.3     1  UNL1        0.1290
     10 C          61.6548   82.5555   14.4884 C.3     1  UNL1        0.0305
     11 C          61.1965   81.1787   14.1085 C.3     1  UNL1        0.0025
     12 C          62.1676   80.2026   13.5130 C.3     1  UNL1        0.0002
     13 C          63.5969   80.6035   13.2974 C.3     1  UNL1        0.0025
     14 C          64.0552   81.9803   13.6773 C.3     1  UNL1        0.0305
     15 O          62.2324   84.0343   14.8749 O.3     1  UNL1       -0.2256
     16 O          63.0965   85.2411   15.0915 O.3     1  UNL1       -0.2251
     17 C          62.6542   88.6636   12.6730 C.3     1  UNL1        0.1164
     18 C          63.2861   89.9063   12.1195 C.ar    1  UNL1        0.0006
     19 C          63.0612   90.2875   10.6863 C.ar    1  UNL1        0.0007
     20 C          63.6930   91.5302   10.1327 C.ar    1  UNL1        0.0404
     21 C          64.5499   92.3917   11.0124 C.ar    1  UNL1        0.1791
     22 C          64.7747   92.0105   12.4455 C.ar    1  UNL1        0.1730
     23 C          64.1429   90.7678   12.9991 C.ar    1  UNL1        0.0375
     24 O          65.5870   92.7226   13.4863 O.3     1  UNL1       -0.4675
     25 C          66.3749   93.9919   13.3509 C.3     1  UNL1        0.2352
     26 C          66.5451   94.8624   12.1413 C.2     1  UNL1        0.0613
     27 C          65.9695   94.6788   10.7683 C.2     1  UNL1        0.1788
     28 O          65.0816   93.5792   10.2659 O.3     1  UNL1       -0.4476
@<TRIPOS>BOND
     1     6     7    1
     2     7     5    1
     3     5     1    1
     4     1     2    2
     5     1     3   am
     6     3    17    1
     7    17    18    1
     8    18    19   ar
     9    19    20   ar
    10    20    21   ar
    11    21    22   ar
    12    22    23   ar
    13    22    24    1
    14    24    25    1
    15    25    26    1
    16    26    27    2
    17    27    28    1
    18     7     8    1
    19     8     9    1
    20     9    10    1
    21    10    11    1
    22    11    12    1
    23    12    13    1
    24    13    14    1
    25     9    15    1
    26    15    16    1
    27    16     7    1
    28    23    18   ar
    29    14     9    1
    30    28    21    1
    31     3     4    1
@<TRIPOS>MOLECULE
*****
 28 31 0 0 0
SMALL
GASTEIGER

@<TRIPOS>ATOM
      1 C          64.2831   83.7515   13.5008 C.2     1  UNL1        0.2252
      2 O          65.6282   84.2851   13.8954 O.2     1  UNL1       -0.2750
      3 N          63.1578   83.7466   14.4927 N.am    1  UNL1       -0.3004
      4 H          62.2749   83.3964   14.2337 H       1  UNL1        0.1497
      5 C          64.0632   83.2228   12.1144 C.3     1  UNL1        0.1154
      6 C          64.0217   83.1737   10.1081 C.3     1  UNL1        0.0335
      7 C          63.3225   84.0492   11.1053 C.3     1  UNL1        0.1377
      8 C          62.7279   84.6927    9.8878 C.3     1  UNL1        0.0613
      9 C          61.8161   85.7931   10.3435 C.3     1  UNL1        0.1290
     10 C          60.9436   86.8541   10.9462 C.3     1  UNL1        0.0305
     11 C          60.1416   87.7590   10.0585 C.3     1  UNL1        0.0025
     12 C          60.2120   87.6029    8.5683 C.3     1  UNL1        0.0002
     13 C          61.0845   86.5419    7.9657 C.3     1  UNL1        0.0025
     14 C          61.8865   85.6370    8.8534 C.3     1  UNL1        0.0305
     15 O          61.8472   85.8297   11.8428 O.3     1  UNL1       -0.2256
     16 O          62.7782   84.7519   12.3136 O.3     1  UNL1       -0.2251
     17 C          63.3776   84.2754   15.8791 C.3     1  UNL1        0.1164
     18 C          63.3796   85.7549   16.1259 C.ar    1  UNL1        0.0006
     19 C          62.7510   86.3085   17.3702 C.ar    1  UNL1        0.0007
     20 C          62.7529   87.7880   17.6171 C.ar    1  UNL1        0.0404
     21 C          63.3834   88.7140   16.6195 C.ar    1  UNL1        0.1791
     22 C          64.0120   88.1604   15.3753 C.ar    1  UNL1        0.1730
     23 C          64.0101   86.6809   15.1284 C.ar    1  UNL1        0.0375
     24 O          64.6895   88.9011   14.2605 O.3     1  UNL1       -0.4675
     25 C          64.9056   90.3784   14.1150 C.3     1  UNL1        0.2352
     26 C          64.4976   91.4796   15.0480 C.2     1  UNL1        0.0613
     27 C          63.7728   91.3758   16.3572 C.2     1  UNL1        0.1788
     28 O          63.2770   90.1450   17.0566 O.3     1  UNL1       -0.4476
@<TRIPOS>BOND
     1     6     7    1
     2     7     5    1
     3     5     1    1
     4     1     2    2
     5     1     3   am
     6     3    17    1
     7    17    18    1
     8    18    19   ar
     9    19    20   ar
    10    20    21   ar
    11    21    22   ar
    12    22    23   ar
    13    22    24    1
    14    24    25    1
    15    25    26    1
    16    26    27    2
    17    27    28    1
    18     7     8    1
    19     8     9    1
    20     9    10    1
    21    10    11    1
    22    11    12    1
    23    12    13    1
    24    13    14    1
    25     9    15    1
    26    15    16    1
    27    16     7    1
    28    23    18   ar
    29    14     9    1
    30    28    21    1
    31     3     4    1
@<TRIPOS>MOLECULE
*****
 28 31 0 0 0
SMALL
GASTEIGER

@<TRIPOS>ATOM
      1 C          61.6933   87.0824    9.2240 C.2     1  UNL1        0.2252
      2 O          60.3916   87.6276    8.7159 O.2     1  UNL1       -0.2750
      3 N          62.6245   87.9658   10.0003 N.am    1  UNL1       -0.3004
      4 H          63.4789   87.6080   10.3338 H       1  UNL1        0.1497
      5 C          62.0638   85.6538    8.9559 C.3     1  UNL1        0.1154
      6 C          63.4136   84.1681    8.9376 C.3     1  UNL1        0.0335
      7 C          62.6436   84.8110   10.0529 C.3     1  UNL1        0.1377
      8 C          63.3843   83.8337   10.9168 C.3     1  UNL1        0.0613
      9 C          62.9509   84.0488   12.3366 C.3     1  UNL1        0.1290
     10 C          62.4237   84.3775   13.7020 C.3     1  UNL1        0.0305
     11 C          62.9130   83.6161   14.8981 C.3     1  UNL1        0.0025
     12 C          63.9295   82.5259   14.7290 C.3     1  UNL1        0.0002
     13 C          64.4567   82.1973   13.3636 C.3     1  UNL1        0.0025
     14 C          63.9674   82.9587   12.1675 C.3     1  UNL1        0.0305
     15 O          61.9423   85.1590   12.3502 O.3     1  UNL1       -0.2256
     16 O          61.7524   85.6300   10.9388 O.3     1  UNL1       -0.2251
     17 C          62.2539   89.3944   10.2684 C.3     1  UNL1        0.1164
     18 C          63.1125   90.2363   11.1651 C.ar    1  UNL1        0.0006
     19 C          63.3107   89.8430   12.5990 C.ar    1  UNL1        0.0007
     20 C          64.1693   90.6848   13.4958 C.ar    1  UNL1        0.0404
     21 C          64.8297   91.9199   12.9586 C.ar    1  UNL1        0.1791
     22 C          64.6314   92.3131   11.5248 C.ar    1  UNL1        0.1730
     23 C          63.7729   91.4714   10.6280 C.ar    1  UNL1        0.0375
     24 O          65.1935   93.4959   10.7930 O.3     1  UNL1       -0.4675
     25 C          66.0926   94.5774   11.3146 C.3     1  UNL1        0.2352
     26 C          66.6516   94.7433   12.6965 C.2     1  UNL1        0.0613
     27 C          66.4498   93.8688   13.8983 C.2     1  UNL1        0.1788
     28 O          65.6389   92.6122   14.0150 O.3     1  UNL1       -0.4476
@<TRIPOS>BOND
     1     6     7    1
     2     7     5    1
     3     5     1    1
     4     1     2    2
     5     1     3   am
     6     3    17    1
     7    17    18    1
     8    18    19   ar
     9    19    20   ar
    10    20    21   ar
    11    21    22   ar
    12    22    23   ar
    13    22    24    1
    14    24    25    1
    15    25    26    1
    16    26    27    2
    17    27    28    1
    18     7     8    1
    19     8     9    1
    20     9    10    1
    21    10    11    1
    22    11    12    1
    23    12    13    1
    24    13    14    1
    25     9    15    1
    26    15    16    1
    27    16     7    1
    28    23    18   ar
    29    14     9    1
    30    28    21    1
    31     3     4    1
