@<TRIPOS>MOLECULE
*****
 30 32 0 0 0
SMALL
GASTEIGER

@<TRIPOS>ATOM
      1 C          62.6035   89.6403   12.3057 C.ar    1  UNL1        0.1835
      2 N          61.6295   90.4462   11.4984 N.ar    1  UNL1       -0.1885
      3 C          60.8386   89.7911   10.4050 C.ar    1  UNL1        0.2596
      4 O          59.8646   90.5970    9.5977 O.3     1  UNL1       -0.4898
      5 C          61.0217   88.3300   10.1191 C.ar    1  UNL1        0.2098
      6 O          60.2308   87.6748    9.0258 O.3     1  UNL1       -0.5007
      7 C          61.9957   87.5241   10.9265 C.ar    1  UNL1        0.1743
      8 N          62.7866   88.1792   12.0198 N.ar    1  UNL1       -0.2173
      9 H          59.7502   91.5097    9.7763 H       1  UNL1        0.2938
     10 H          59.6224   88.1783    8.5215 H       1  UNL1        0.2924
     11 C          65.3698   91.8057   14.1520 C.ar    1  UNL1        0.1419
     12 C          64.9762   91.6057   15.5855 C.ar    1  UNL1        0.0576
     13 C          63.7917   90.7506   15.9258 C.ar    1  UNL1        0.1021
     14 N          63.0008   90.0954   14.8326 N.ar    1  UNL1       -0.2405
     15 C          63.3944   90.2954   13.3990 C.ar    1  UNL1        0.1201
     16 C          64.5788   91.1506   13.0587 C.ar    1  UNL1        0.0591
     17 C          67.2301   93.4660   14.8816 C.3     1  UNL1        0.2525
     18 O          66.5542   92.6608   13.8117 O.3     1  UNL1       -0.4713
     19 C          62.1788   86.0630   10.6406 C.2     1  UNL1        0.2668
     20 O          61.3619   85.3999    9.5715 O.2     1  UNL1       -0.2684
     21 N          63.1788   85.2651   11.4237 N.am    1  UNL1       -0.3012
     22 H          63.7150   85.7003   12.1254 H       1  UNL1        0.1497
     23 C          63.3619   83.8040   11.1378 C.3     1  UNL1        0.0719
     24 C          63.9929   83.3652    9.8496 C.3     1  UNL1        0.0213
     25 C          62.9140   82.7818   12.1399 C.3     1  UNL1        0.0180
     26 C          62.4650   83.2153   13.5040 C.3     1  UNL1        0.0016
     27 C          62.0172   82.1930   14.5062 C.3     1  UNL1        0.0001
     28 C          62.0183   80.7373   14.1444 C.3     1  UNL1        0.0000
     29 C          62.4672   80.3038   12.7804 C.3     1  UNL1        0.0001
     30 C          62.9151   81.3261   11.7781 C.3     1  UNL1        0.0016
@<TRIPOS>BOND
     1    17    18    1
     2    18    11    1
     3    11    12   ar
     4    12    13   ar
     5    13    14   ar
     6    14    15   ar
     7    15     1    1
     8     1     2   ar
     9     2     3   ar
    10     3     4    1
    11     3     5   ar
    12     5     6    1
    13     5     7   ar
    14     7    19    1
    15    19    20    2
    16    19    21   am
    17    21    23    1
    18    23    24    1
    19    23    25    1
    20    25    26    1
    21    26    27    1
    22    27    28    1
    23    28    29    1
    24    29    30    1
    25     7     8   ar
    26    15    16   ar
    27    16    11   ar
    28     8     1   ar
    29    30    25    1
    30     4     9    1
    31     6    10    1
    32    21    22    1
@<TRIPOS>MOLECULE
*****
 30 32 0 0 0
SMALL
GASTEIGER

@<TRIPOS>ATOM
      1 C          65.8426   92.7275   12.2602 C.ar    1  UNL1        0.1835
      2 N          66.2490   93.0529   13.6669 N.ar    1  UNL1       -0.1885
      3 C          65.5434   92.4039   14.8206 C.ar    1  UNL1        0.2596
      4 O          65.9497   92.7293   16.2273 O.3     1  UNL1       -0.4898
      5 C          64.4314   91.4295   14.5675 C.ar    1  UNL1        0.2098
      6 O          63.7257   90.7806   15.7211 O.3     1  UNL1       -0.5007
      7 C          64.0250   91.1041   13.1607 C.ar    1  UNL1        0.1743
      8 N          64.7306   91.7531   12.0071 N.ar    1  UNL1       -0.2173
      9 H          66.6444   93.3380   16.3854 H       1  UNL1        0.2938
     10 H          63.9796   90.9838   16.5999 H       1  UNL1        0.2924
     11 C          66.8017   95.3665    9.4556 C.ar    1  UNL1        0.1419
     12 C          67.9593   94.6744    8.7991 C.ar    1  UNL1        0.0576
     13 C          68.4114   93.3333    9.2963 C.ar    1  UNL1        0.1021
     14 N          67.7058   92.6844   10.4500 N.ar    1  UNL1       -0.2405
     15 C          66.5482   93.3764   11.1064 C.ar    1  UNL1        0.1201
     16 C          66.0962   94.7175   10.6092 C.ar    1  UNL1        0.0591
     17 C          65.8470   96.8559    7.5530 C.3     1  UNL1        0.2525
     18 O          66.3497   96.7076    8.9584 O.3     1  UNL1       -0.4713
     19 C          62.9130   90.1298   12.9076 C.2     1  UNL1        0.2668
     20 O          62.8230   88.8683   13.7144 O.2     1  UNL1       -0.2684
     21 N          61.8910   90.4168   11.8478 N.am    1  UNL1       -0.3012
     22 H          61.9501   91.2447   11.3183 H       1  UNL1        0.1497
     23 C          60.7790   89.4424   11.5947 C.3     1  UNL1        0.0719
     24 C          59.4879   89.5655   12.3484 C.3     1  UNL1        0.0213
     25 C          60.9581   88.3449   10.5880 C.3     1  UNL1        0.0180
     26 C          60.1770   88.3669    9.3076 C.3     1  UNL1        0.0016
     27 C          60.3561   87.2695    8.3009 C.3     1  UNL1        0.0001
     28 C          61.3162   86.1500    8.5746 C.3     1  UNL1        0.0000
     29 C          62.0973   86.1279    9.8550 C.3     1  UNL1        0.0001
     30 C          61.9182   87.2254   10.8617 C.3     1  UNL1        0.0016
@<TRIPOS>BOND
     1    17    18    1
     2    18    11    1
     3    11    12   ar
     4    12    13   ar
     5    13    14   ar
     6    14    15   ar
     7    15     1    1
     8     1     2   ar
     9     2     3   ar
    10     3     4    1
    11     3     5   ar
    12     5     6    1
    13     5     7   ar
    14     7    19    1
    15    19    20    2
    16    19    21   am
    17    21    23    1
    18    23    24    1
    19    23    25    1
    20    25    26    1
    21    26    27    1
    22    27    28    1
    23    28    29    1
    24    29    30    1
    25     7     8   ar
    26    15    16   ar
    27    16    11   ar
    28     8     1   ar
    29    30    25    1
    30     4     9    1
    31     6    10    1
    32    21    22    1
@<TRIPOS>MOLECULE
*****
 30 32 0 0 0
SMALL
GASTEIGER

@<TRIPOS>ATOM
      1 C          65.7138   93.0568   12.6210 C.ar    1  UNL1        0.1835
      2 N          66.1713   93.2636   14.0345 N.ar    1  UNL1       -0.1885
      3 C          65.5725   92.4499   15.1433 C.ar    1  UNL1        0.2596
      4 O          66.0299   92.6567   16.5568 O.3     1  UNL1       -0.4898
      5 C          64.5162   91.4294   14.8385 C.ar    1  UNL1        0.2098
      6 O          63.9174   90.6156   15.9473 O.3     1  UNL1       -0.5007
      7 C          64.0588   91.2226   13.4250 C.ar    1  UNL1        0.1743
      8 N          64.6576   92.0363   12.3163 N.ar    1  UNL1       -0.2173
      9 H          66.6897   93.2942   16.7471 H       1  UNL1        0.2938
     10 H          64.2032   90.7448   16.8302 H       1  UNL1        0.2924
     11 C          67.6131   94.0017    9.2669 C.ar    1  UNL1        0.1419
     12 C          67.5102   95.4978    9.2947 C.ar    1  UNL1        0.0576
     13 C          66.8085   96.1804   10.4313 C.ar    1  UNL1        0.1021
     14 N          66.2097   95.3667   11.5400 N.ar    1  UNL1       -0.2405
     15 C          66.3126   93.8705   11.5122 C.ar    1  UNL1        0.1201
     16 C          67.0143   93.1880   10.3757 C.ar    1  UNL1        0.0591
     17 C          69.0182   92.0141    8.3585 C.3     1  UNL1        0.2525
     18 O          68.3148   93.3191    8.1303 O.3     1  UNL1       -0.4713
     19 C          63.0026   90.2020   13.1202 C.2     1  UNL1        0.2668
     20 O          62.1479   89.6544   14.2247 O.2     1  UNL1       -0.2684
     21 N          62.8010   89.7291   11.7111 N.am    1  UNL1       -0.3012
     22 H          63.3619   90.0885   10.9863 H       1  UNL1        0.1497
     23 C          61.7448   88.7085   11.4064 C.3     1  UNL1        0.0719
     24 C          60.2988   89.0335   11.6382 C.3     1  UNL1        0.0213
     25 C          62.1344   87.3631   10.8698 C.3     1  UNL1        0.0180
     26 C          62.4613   86.2448   11.8146 C.3     1  UNL1        0.0016
     27 C          62.8509   84.8994   11.2780 C.3     1  UNL1        0.0001
     28 C          62.9138   84.6722    9.7967 C.3     1  UNL1        0.0000
     29 C          62.5869   85.7904    8.8519 C.3     1  UNL1        0.0001
     30 C          62.1972   87.1359    9.3884 C.3     1  UNL1        0.0016
@<TRIPOS>BOND
     1    17    18    1
     2    18    11    1
     3    11    12   ar
     4    12    13   ar
     5    13    14   ar
     6    14    15   ar
     7    15     1    1
     8     1     2   ar
     9     2     3   ar
    10     3     4    1
    11     3     5   ar
    12     5     6    1
    13     5     7   ar
    14     7    19    1
    15    19    20    2
    16    19    21   am
    17    21    23    1
    18    23    24    1
    19    23    25    1
    20    25    26    1
    21    26    27    1
    22    27    28    1
    23    28    29    1
    24    29    30    1
    25     7     8   ar
    26    15    16   ar
    27    16    11   ar
    28     8     1   ar
    29    30    25    1
    30     4     9    1
    31     6    10    1
    32    21    22    1
@<TRIPOS>MOLECULE
*****
 30 32 0 0 0
SMALL
GASTEIGER

@<TRIPOS>ATOM
      1 C          63.4632   90.5386   12.0651 C.ar    1  UNL1        0.1835
      2 N          62.3901   91.0222   11.1354 N.ar    1  UNL1       -0.1885
      3 C          61.3697   90.0602   10.6028 C.ar    1  UNL1        0.2596
      4 O          60.2965   90.5438    9.6731 O.3     1  UNL1       -0.4898
      5 C          61.4225   88.6147   11.0000 C.ar    1  UNL1        0.2098
      6 O          60.4022   87.6528   10.4674 O.3     1  UNL1       -0.5007
      7 C          62.4958   88.1312   11.9297 C.ar    1  UNL1        0.1743
      8 N          63.5161   89.0931   12.4623 N.ar    1  UNL1       -0.2173
      9 H          60.2635   91.4468    9.4250 H       1  UNL1        0.2938
     10 H          59.7318   87.9549    9.8866 H       1  UNL1        0.2924
     11 C          66.2313   93.3796   12.1924 C.ar    1  UNL1        0.1419
     12 C          66.5243   93.4243   13.6628 C.ar    1  UNL1        0.0576
     13 C          65.7969   92.5070   14.6006 C.ar    1  UNL1        0.1021
     14 N          64.7766   91.5451   14.0681 N.ar    1  UNL1       -0.2405
     15 C          64.4836   91.5005   12.5977 C.ar    1  UNL1        0.1201
     16 C          65.2110   92.4178   11.6598 C.ar    1  UNL1        0.0591
     17 C          66.7451   94.1794    9.7745 C.3     1  UNL1        0.2525
     18 O          66.9587   94.2969   11.2545 O.3     1  UNL1       -0.4713
     19 C          62.5486   86.6857   12.3269 C.2     1  UNL1        0.2668
     20 O          61.5390   85.7203   11.7802 O.2     1  UNL1       -0.2684
     21 N          63.6110   86.2055   13.2706 N.am    1  UNL1       -0.3012
     22 H          64.2737   86.8391   13.6294 H       1  UNL1        0.1497
     23 C          63.6639   84.7600   13.6678 C.3     1  UNL1        0.0719
     24 C          63.7895   84.3838   15.1144 C.3     1  UNL1        0.0213
     25 C          63.5911   83.6908   12.6184 C.3     1  UNL1        0.0180
     26 C          62.7010   82.5005   12.8209 C.3     1  UNL1        0.0016
     27 C          62.6282   81.4312   11.7714 C.3     1  UNL1        0.0001
     28 C          63.4455   81.5522   10.5195 C.3     1  UNL1        0.0000
     29 C          64.3356   82.7424   10.3170 C.3     1  UNL1        0.0001
     30 C          64.4084   83.8117   11.3664 C.3     1  UNL1        0.0016
@<TRIPOS>BOND
     1    17    18    1
     2    18    11    1
     3    11    12   ar
     4    12    13   ar
     5    13    14   ar
     6    14    15   ar
     7    15     1    1
     8     1     2   ar
     9     2     3   ar
    10     3     4    1
    11     3     5   ar
    12     5     6    1
    13     5     7   ar
    14     7    19    1
    15    19    20    2
    16    19    21   am
    17    21    23    1
    18    23    24    1
    19    23    25    1
    20    25    26    1
    21    26    27    1
    22    27    28    1
    23    28    29    1
    24    29    30    1
    25     7     8   ar
    26    15    16   ar
    27    16    11   ar
    28     8     1   ar
    29    30    25    1
    30     4     9    1
    31     6    10    1
    32    21    22    1
@<TRIPOS>MOLECULE
*****
 30 32 0 0 0
SMALL
GASTEIGER

@<TRIPOS>ATOM
      1 C          62.8410   90.2535   11.8424 C.ar    1  UNL1        0.1835
      2 N          61.4765   90.8763   11.8456 N.ar    1  UNL1       -0.1885
      3 C          60.2733   90.0485   11.5033 C.ar    1  UNL1        0.2596
      4 O          58.9088   90.6713   11.5065 O.3     1  UNL1       -0.4898
      5 C          60.4348   88.5977   11.1578 C.ar    1  UNL1        0.2098
      6 O          59.2317   87.7699   10.8155 O.3     1  UNL1       -0.5007
      7 C          61.7994   87.9749   11.1546 C.ar    1  UNL1        0.1743
      8 N          63.0025   88.8028   11.4969 N.ar    1  UNL1       -0.2173
      9 H          58.8080   91.5775   11.7223 H       1  UNL1        0.2938
     10 H          58.3793   88.1589   10.8175 H       1  UNL1        0.2924
     11 C          65.8130   91.8717   13.9157 C.ar    1  UNL1        0.1419
     12 C          66.4504   92.7370   12.8693 C.ar    1  UNL1        0.0576
     13 C          65.8847   92.7744   11.4806 C.ar    1  UNL1        0.1021
     14 N          64.6816   91.9466   11.1383 N.ar    1  UNL1       -0.2405
     15 C          64.0442   91.0813   12.1847 C.ar    1  UNL1        0.1201
     16 C          64.6099   91.0439   13.5734 C.ar    1  UNL1        0.0591
     17 C          67.8619   91.9161   15.5126 C.3     1  UNL1        0.2525
     18 O          66.3787   91.8343   15.3045 O.3     1  UNL1       -0.4713
     19 C          61.9609   86.5242   10.8092 C.2     1  UNL1        0.2668
     20 O          61.0718   85.8954    9.7774 O.2     1  UNL1       -0.2684
     21 N          63.0113   85.7022   11.4954 N.am    1  UNL1       -0.3012
     22 H          63.5948   86.1148   12.1725 H       1  UNL1        0.1497
     23 C          63.1728   84.2515   11.1499 C.3     1  UNL1        0.0719
     24 C          63.6823   83.8551    9.7959 C.3     1  UNL1        0.0213
     25 C          62.8247   83.1971   12.1584 C.3     1  UNL1        0.0180
     26 C          62.7762   81.7547   11.7492 C.3     1  UNL1        0.0016
     27 C          62.4281   80.7004   12.7577 C.3     1  UNL1        0.0001
     28 C          62.1285   81.0883   14.1754 C.3     1  UNL1        0.0000
     29 C          62.1771   82.5305   14.5846 C.3     1  UNL1        0.0001
     30 C          62.5251   83.5850   13.5761 C.3     1  UNL1        0.0016
@<TRIPOS>BOND
     1    17    18    1
     2    18    11    1
     3    11    12   ar
     4    12    13   ar
     5    13    14   ar
     6    14    15   ar
     7    15     1    1
     8     1     2   ar
     9     2     3   ar
    10     3     4    1
    11     3     5   ar
    12     5     6    1
    13     5     7   ar
    14     7    19    1
    15    19    20    2
    16    19    21   am
    17    21    23    1
    18    23    24    1
    19    23    25    1
    20    25    26    1
    21    26    27    1
    22    27    28    1
    23    28    29    1
    24    29    30    1
    25     7     8   ar
    26    15    16   ar
    27    16    11   ar
    28     8     1   ar
    29    30    25    1
    30     4     9    1
    31     6    10    1
    32    21    22    1
@<TRIPOS>MOLECULE
*****
 30 32 0 0 0
SMALL
GASTEIGER

@<TRIPOS>ATOM
      1 C          62.2244   85.8059   10.6561 C.ar    1  UNL1        0.1835
      2 N          61.3177   85.9831    9.4744 N.ar    1  UNL1       -0.1885
      3 C          60.8124   87.3490    9.1149 C.ar    1  UNL1        0.2596
      4 O          59.9057   87.5263    7.9332 O.3     1  UNL1       -0.4898
      5 C          61.2140   88.5376    9.9371 C.ar    1  UNL1        0.2098
      6 O          60.7088   89.9035    9.5776 O.3     1  UNL1       -0.5007
      7 C          62.1207   88.3603   11.1188 C.ar    1  UNL1        0.1743
      8 N          62.6259   86.9945   11.4783 N.ar    1  UNL1       -0.2173
      9 H          59.6549   86.7838    7.4196 H       1  UNL1        0.2938
     10 H          60.1424   90.0142    8.8394 H       1  UNL1        0.2924
     11 C          62.8806   82.4686   12.7010 C.ar    1  UNL1        0.1419
     12 C          63.7399   81.7084   11.7348 C.ar    1  UNL1        0.0576
     13 C          64.0941   82.3141   10.4090 C.ar    1  UNL1        0.1021
     14 N          63.5889   83.6799   10.0494 N.ar    1  UNL1       -0.2405
     15 C          62.7296   84.4400   11.0157 C.ar    1  UNL1        0.1201
     16 C          62.3754   83.8344   12.3415 C.ar    1  UNL1        0.0591
     17 C          61.2656   81.0639   14.1736 C.3     1  UNL1        0.2525
     18 O          62.5265   81.8629   14.0268 O.3     1  UNL1       -0.4713
     19 C          62.5223   89.5489   11.9410 C.2     1  UNL1        0.2668
     20 O          61.6605   90.7766   11.9554 O.2     1  UNL1       -0.2684
     21 N          63.7855   89.5098   12.7489 N.am    1  UNL1       -0.3012
     22 H          64.3511   88.7041   12.7395 H       1  UNL1        0.1497
     23 C          64.1871   90.6984   13.5711 C.3     1  UNL1        0.0719
     24 C          63.8497   90.7484   15.0319 C.3     1  UNL1        0.0213
     25 C          64.9259   91.8370   12.9326 C.3     1  UNL1        0.0180
     26 C          65.8017   92.7244   13.7666 C.3     1  UNL1        0.0016
     27 C          66.5406   93.8630   13.1281 C.3     1  UNL1        0.0001
     28 C          66.4037   94.1142   11.6556 C.3     1  UNL1        0.0000
     29 C          65.5279   93.2268   10.8217 C.3     1  UNL1        0.0001
     30 C          64.7890   92.0882   11.4601 C.3     1  UNL1        0.0016
@<TRIPOS>BOND
     1    17    18    1
     2    18    11    1
     3    11    12   ar
     4    12    13   ar
     5    13    14   ar
     6    14    15   ar
     7    15     1    1
     8     1     2   ar
     9     2     3   ar
    10     3     4    1
    11     3     5   ar
    12     5     6    1
    13     5     7   ar
    14     7    19    1
    15    19    20    2
    16    19    21   am
    17    21    23    1
    18    23    24    1
    19    23    25    1
    20    25    26    1
    21    26    27    1
    22    27    28    1
    23    28    29    1
    24    29    30    1
    25     7     8   ar
    26    15    16   ar
    27    16    11   ar
    28     8     1   ar
    29    30    25    1
    30     4     9    1
    31     6    10    1
    32    21    22    1
@<TRIPOS>MOLECULE
*****
 30 32 0 0 0
SMALL
GASTEIGER

@<TRIPOS>ATOM
      1 C          65.0640   92.3534   12.2598 C.ar    1  UNL1        0.1835
      2 N          65.1059   92.4730   13.7545 N.ar    1  UNL1       -0.1885
      3 C          64.3121   91.5262   14.6051 C.ar    1  UNL1        0.2596
      4 O          64.3540   91.6457   16.0997 O.3     1  UNL1       -0.4898
      5 C          63.4765   90.4599   13.9611 C.ar    1  UNL1        0.2098
      6 O          62.6827   89.5131   14.8117 O.3     1  UNL1       -0.5007
      7 C          63.4347   90.3403   12.4664 C.ar    1  UNL1        0.1743
      8 N          64.2284   91.2871   11.6158 N.ar    1  UNL1       -0.2173
      9 H          64.8759   92.3118   16.5020 H       1  UNL1        0.2938
     10 H          62.7089   89.5878   15.7454 H       1  UNL1        0.2924
     11 C          67.4564   93.7244    9.4055 C.ar    1  UNL1        0.1419
     12 C          67.4454   95.1936    9.7078 C.ar    1  UNL1        0.0576
     13 C          66.6406   95.7160   10.8608 C.ar    1  UNL1        0.1021
     14 N          65.8468   94.7693   11.7115 N.ar    1  UNL1       -0.2405
     15 C          65.8578   93.3002   11.4092 C.ar    1  UNL1        0.1201
     16 C          66.6626   92.7777   10.2562 C.ar    1  UNL1        0.0591
     17 C          69.0985   91.9688    8.4200 C.3     1  UNL1        0.2525
     18 O          68.2611   93.2020    8.2525 O.3     1  UNL1       -0.4713
     19 C          62.5991   89.2740   11.8224 C.2     1  UNL1        0.2668
     20 O          61.4345   89.6544   10.9568 O.2     1  UNL1       -0.2684
     21 N          62.9280   87.8274   12.0439 N.am    1  UNL1       -0.3012
     22 H          63.6923   87.5778   12.6120 H       1  UNL1        0.1497
     23 C          62.0924   86.7611   11.3999 C.3     1  UNL1        0.0719
     24 C          60.7209   87.0896   10.8886 C.3     1  UNL1        0.0213
     25 C          62.6281   85.3664   11.2672 C.3     1  UNL1        0.0180
     26 C          63.1438   84.8839    9.9438 C.3     1  UNL1        0.0016
     27 C          63.6796   83.4891    9.8110 C.3     1  UNL1        0.0001
     28 C          63.6997   82.5769   11.0016 C.3     1  UNL1        0.0000
     29 C          63.1840   83.0594   12.3249 C.3     1  UNL1        0.0001
     30 C          62.6482   84.4542   12.4577 C.3     1  UNL1        0.0016
@<TRIPOS>BOND
     1    17    18    1
     2    18    11    1
     3    11    12   ar
     4    12    13   ar
     5    13    14   ar
     6    14    15   ar
     7    15     1    1
     8     1     2   ar
     9     2     3   ar
    10     3     4    1
    11     3     5   ar
    12     5     6    1
    13     5     7   ar
    14     7    19    1
    15    19    20    2
    16    19    21   am
    17    21    23    1
    18    23    24    1
    19    23    25    1
    20    25    26    1
    21    26    27    1
    22    27    28    1
    23    28    29    1
    24    29    30    1
    25     7     8   ar
    26    15    16   ar
    27    16    11   ar
    28     8     1   ar
    29    30    25    1
    30     4     9    1
    31     6    10    1
    32    21    22    1
@<TRIPOS>MOLECULE
*****
 30 32 0 0 0
SMALL
GASTEIGER

@<TRIPOS>ATOM
      1 C          65.0629   92.3982   12.2628 C.ar    1  UNL1        0.1835
      2 N          65.2793   92.5708   13.7369 N.ar    1  UNL1       -0.1885
      3 C          64.5461   91.6960   14.7102 C.ar    1  UNL1        0.2596
      4 O          64.7625   91.8686   16.1844 O.3     1  UNL1       -0.4898
      5 C          63.5964   90.6485   14.2091 C.ar    1  UNL1        0.2098
      6 O          62.8632   89.7737   15.1823 O.3     1  UNL1       -0.5007
      7 C          63.3800   90.4759   12.7348 C.ar    1  UNL1        0.1743
      8 N          64.1132   91.3508   11.7617 N.ar    1  UNL1       -0.2173
      9 H          65.3557   92.5229   16.4974 H       1  UNL1        0.2938
     10 H          62.9984   89.8815   16.1032 H       1  UNL1        0.2924
     11 C          67.6808   93.5944    9.5304 C.ar    1  UNL1        0.1419
     12 C          67.2625   95.0226    9.3432 C.ar    1  UNL1        0.0576
     13 C          66.1110   95.5761   10.1291 C.ar    1  UNL1        0.1021
     14 N          65.3778   94.7013   11.1023 N.ar    1  UNL1       -0.2405
     15 C          65.7961   93.2731   11.2895 C.ar    1  UNL1        0.1201
     16 C          66.9476   92.7196   10.5036 C.ar    1  UNL1        0.0591
     17 C          68.8803   91.5788    8.4130 C.3     1  UNL1        0.2525
     18 O          68.8323   93.0409    8.7445 O.3     1  UNL1       -0.4713
     19 C          62.4304   89.4285   12.2338 C.2     1  UNL1        0.2668
     20 O          60.9940   89.4502   12.6655 O.2     1  UNL1       -0.2684
     21 N          62.9171   88.3594   11.3010 N.am    1  UNL1       -0.3012
     22 H          63.8598   88.3452   11.0176 H       1  UNL1        0.1497
     23 C          61.9675   87.3120   10.7999 C.3     1  UNL1        0.0719
     24 C          61.9371   85.9575   11.4438 C.3     1  UNL1        0.0213
     25 C          61.0483   87.6190    9.6550 C.3     1  UNL1        0.0180
     26 C          60.8370   89.0398    9.2230 C.3     1  UNL1        0.0016
     27 C          59.9178   89.3468    8.0782 C.3     1  UNL1        0.0001
     28 C          59.2098   88.2330    7.3652 C.3     1  UNL1        0.0000
     29 C          59.4211   86.8122    7.7972 C.3     1  UNL1        0.0001
     30 C          60.3404   86.5051    8.9421 C.3     1  UNL1        0.0016
@<TRIPOS>BOND
     1    17    18    1
     2    18    11    1
     3    11    12   ar
     4    12    13   ar
     5    13    14   ar
     6    14    15   ar
     7    15     1    1
     8     1     2   ar
     9     2     3   ar
    10     3     4    1
    11     3     5   ar
    12     5     6    1
    13     5     7   ar
    14     7    19    1
    15    19    20    2
    16    19    21   am
    17    21    23    1
    18    23    24    1
    19    23    25    1
    20    25    26    1
    21    26    27    1
    22    27    28    1
    23    28    29    1
    24    29    30    1
    25     7     8   ar
    26    15    16   ar
    27    16    11   ar
    28     8     1   ar
    29    30    25    1
    30     4     9    1
    31     6    10    1
    32    21    22    1
@<TRIPOS>MOLECULE
*****
 30 32 0 0 0
SMALL
GASTEIGER

@<TRIPOS>ATOM
      1 C          63.5394   86.0156   14.3659 C.ar    1  UNL1        0.1835
      2 N          63.0249   85.5431   15.6933 N.ar    1  UNL1       -0.1885
      3 C          62.8898   86.5096   16.8325 C.ar    1  UNL1        0.2596
      4 O          62.3753   86.0372   18.1599 O.3     1  UNL1       -0.4898
      5 C          63.2691   87.9486   16.6442 C.ar    1  UNL1        0.2098
      6 O          63.1340   88.9151   17.7833 O.3     1  UNL1       -0.5007
      7 C          63.7836   88.4211   15.3167 C.ar    1  UNL1        0.1743
      8 N          63.9187   87.4546   14.1776 N.ar    1  UNL1       -0.2173
      9 H          62.1384   85.1383   18.2776 H       1  UNL1        0.2938
     10 H          62.8126   88.6200   18.6125 H       1  UNL1        0.2924
     11 C          63.3338   84.4666   10.7179 C.ar    1  UNL1        0.1419
     12 C          63.9448   83.1162   10.9485 C.ar    1  UNL1        0.0576
     13 C          64.4206   82.7323   12.3182 C.ar    1  UNL1        0.1021
     14 N          64.2855   83.6987   13.4573 N.ar    1  UNL1       -0.2405
     15 C          63.6745   85.0491   13.2268 C.ar    1  UNL1        0.1201
     16 C          63.1987   85.4330   11.8570 C.ar    1  UNL1        0.0591
     17 C          62.0436   86.0958    9.1588 C.3     1  UNL1        0.2525
     18 O          62.8579   84.8505    9.3481 O.3     1  UNL1       -0.4713
     19 C          64.1629   89.8600   15.1284 C.2     1  UNL1        0.2668
     20 O          63.1795   90.9441   15.4569 O.2     1  UNL1       -0.2684
     21 N          65.5256   90.2150   14.6116 N.am    1  UNL1       -0.3012
     22 H          66.1710   89.5035   14.3961 H       1  UNL1        0.1497
     23 C          65.9049   91.6540   14.4233 C.3     1  UNL1        0.0719
     24 C          66.4568   92.4410   15.5749 C.3     1  UNL1        0.0213
     25 C          65.7324   92.3059   13.0835 C.3     1  UNL1        0.0180
     26 C          66.4805   93.5653   12.7603 C.3     1  UNL1        0.0016
     27 C          66.3079   94.2173   11.4205 C.3     1  UNL1        0.0001
     28 C          65.3873   93.6099   10.4038 C.3     1  UNL1        0.0000
     29 C          64.6392   92.3506   10.7270 C.3     1  UNL1        0.0001
     30 C          64.8117   91.6986   12.0669 C.3     1  UNL1        0.0016
@<TRIPOS>BOND
     1    17    18    1
     2    18    11    1
     3    11    12   ar
     4    12    13   ar
     5    13    14   ar
     6    14    15   ar
     7    15     1    1
     8     1     2   ar
     9     2     3   ar
    10     3     4    1
    11     3     5   ar
    12     5     6    1
    13     5     7   ar
    14     7    19    1
    15    19    20    2
    16    19    21   am
    17    21    23    1
    18    23    24    1
    19    23    25    1
    20    25    26    1
    21    26    27    1
    22    27    28    1
    23    28    29    1
    24    29    30    1
    25     7     8   ar
    26    15    16   ar
    27    16    11   ar
    28     8     1   ar
    29    30    25    1
    30     4     9    1
    31     6    10    1
    32    21    22    1
