@<TRIPOS>MOLECULE
*****
 34 38 0 0 0
SMALL
GASTEIGER

@<TRIPOS>ATOM
      1 N          62.5242   87.1525   11.7107 N.3     1  UNL1       -0.2644
      2 C          62.7874   88.6080   11.4611 C.3     1  UNL1        0.0981
      3 C          62.3527   89.2384   10.1713 C.3     1  UNL1        0.0224
      4 C          62.6159   90.6939    9.9218 C.3     1  UNL1        0.0065
      5 C          63.3137   91.5190   10.9620 C.3     1  UNL1        0.0277
      6 C          63.7484   90.8886   12.2518 C.ar    1  UNL1       -0.0073
      7 C          64.4463   91.7138   13.2922 C.ar    1  UNL1       -0.0015
      8 C          64.8809   91.0834   14.5820 C.ar    1  UNL1        0.0203
      9 C          64.6177   89.6279   14.8315 C.ar    1  UNL1        0.0985
     10 N          63.9199   88.8028   13.7913 N.ar    1  UNL1       -0.2471
     11 C          63.4852   89.4331   12.5014 C.ar    1  UNL1        0.0695
     12 C          61.4321   86.4486   10.9612 C.3     1  UNL1        0.0946
     13 C          60.6732   86.1453    8.4950 C.2     1  UNL1       -0.0354
     14 C          61.6874   85.9265    9.5784 C.2     1  UNL1       -0.0349
     15 C          62.9569   85.1858    9.2789 C.3     1  UNL1        0.0228
     16 C          63.2122   84.6637    7.8960 C.3     1  UNL1        0.0047
     17 C          62.1981   84.8824    6.8127 C.3     1  UNL1        0.0047
     18 C          60.9285   85.6232    7.1122 C.3     1  UNL1        0.0228
     19 N          58.2839   86.8891    7.7966 N.3     1  UNL1       -0.3177
     20 C          59.4038   86.8860    8.7945 C.3     1  UNL1        0.0873
     21 H          57.5048   87.4370    8.1615 H       1  UNL1        0.1191
     22 H          57.9763   85.9313    7.6277 H       1  UNL1        0.1191
     23 C          63.3531   86.4010   12.7096 C.3     1  UNL1        0.0888
     24 C          62.9730   85.0033   13.0998 C.3     1  UNL1        0.0748
     25 C          63.2241   83.8662   12.1543 C.3     1  UNL1        0.0432
     26 C          62.8440   82.4686   12.5444 C.ar    1  UNL1       -0.0234
     27 C          63.0950   81.3315   11.5990 C.ar    1  UNL1       -0.0045
     28 C          62.7149   79.9339   11.9891 C.ar    1  UNL1       -0.0003
     29 C          62.0837   79.6734   13.3247 C.ar    1  UNL1       -0.0003
     30 C          61.8327   80.8105   14.2701 C.ar    1  UNL1       -0.0032
     31 C          62.2128   82.2081   13.8800 C.ar    1  UNL1       -0.0103
     32 C          61.9618   83.3453   14.8255 C.3     1  UNL1        0.0953
     33 N          62.3419   84.7429   14.4353 N.3     1  UNL1       -0.2934
     34 H          62.9977   85.0775   15.1412 H       1  UNL1        0.1236
@<TRIPOS>BOND
     1    19    20    1
     2    20    13    1
     3    13    14    2
     4    14    12    1
     5    12     1    1
     6     1    23    1
     7    24    23    1
     8    24    25    1
     9    25    26    1
    10    26    27   ar
    11    27    28   ar
    12    28    29   ar
    13    29    30   ar
    14    30    31   ar
    15    31    32    1
    16    32    33    1
    17     2     1    1
    18     2     3    1
    19     3     4    1
    20     4     5    1
    21     5     6    1
    22     6     7   ar
    23     7     8   ar
    24     8     9   ar
    25     9    10   ar
    26    10    11   ar
    27    14    15    1
    28    15    16    1
    29    16    17    1
    30    17    18    1
    31    18    13    1
    32    33    24    1
    33    11     2    1
    34    31    26   ar
    35    11     6   ar
    36    19    21    1
    37    19    22    1
    38    33    34    1
@<TRIPOS>MOLECULE
*****
 34 38 0 0 0
SMALL
GASTEIGER

@<TRIPOS>ATOM
      1 N          64.0655   89.9499   13.7266 N.3     1  UNL1       -0.2644
      2 C          64.9163   91.1634   13.9584 C.3     1  UNL1        0.0981
      3 C          65.4589   91.4484   15.3274 C.3     1  UNL1        0.0224
      4 C          66.3097   92.6619   15.5592 C.3     1  UNL1        0.0065
      5 C          66.6178   93.5903   14.4221 C.3     1  UNL1        0.0277
      6 C          66.0751   93.3052   13.0531 C.ar    1  UNL1       -0.0073
      7 C          66.3832   94.2336   11.9158 C.ar    1  UNL1       -0.0015
      8 C          65.8405   93.9485   10.5468 C.ar    1  UNL1        0.0203
      9 C          64.9897   92.7351   10.3150 C.ar    1  UNL1        0.0985
     10 N          64.6816   91.8067   11.4522 N.ar    1  UNL1       -0.2471
     11 C          65.2243   92.0917   12.8212 C.ar    1  UNL1        0.0695
     12 C          64.5720   88.5931   14.1170 C.3     1  UNL1        0.0946
     13 C          64.0060   86.3839   15.3617 C.2     1  UNL1       -0.0354
     14 C          63.9792   87.8824   15.2974 C.2     1  UNL1       -0.0349
     15 C          63.3597   88.6699   16.4136 C.3     1  UNL1        0.0228
     16 C          62.7669   87.9592   17.5940 C.3     1  UNL1        0.0047
     17 C          62.7936   86.4608   17.6583 C.3     1  UNL1        0.0047
     18 C          63.4132   85.6732   16.5421 C.3     1  UNL1        0.0228
     19 N          65.7113   84.6043   14.5403 N.3     1  UNL1       -0.3177
     20 C          64.6255   85.5963   14.2455 C.3     1  UNL1        0.0873
     21 H          66.0141   84.1636   13.6717 H       1  UNL1        0.1191
     22 H          65.3566   83.8913   15.1776 H       1  UNL1        0.1191
     23 C          62.7082   90.0933   13.1043 C.3     1  UNL1        0.0888
     24 C          62.2639   89.1302   12.0435 C.3     1  UNL1        0.0748
     25 C          61.3748   89.5987   10.9300 C.3     1  UNL1        0.0432
     26 C          60.9306   88.6356    9.8692 C.ar    1  UNL1       -0.0234
     27 C          60.0415   89.1040    8.7557 C.ar    1  UNL1       -0.0045
     28 C          59.5972   88.1410    7.6950 C.ar    1  UNL1       -0.0003
     29 C          60.0421   86.7094    7.7479 C.ar    1  UNL1       -0.0003
     30 C          60.9312   86.2410    8.8614 C.ar    1  UNL1       -0.0032
     31 C          61.3754   87.2040    9.9221 C.ar    1  UNL1       -0.0103
     32 C          62.2646   86.7356   11.0357 C.3     1  UNL1        0.0953
     33 N          62.7088   87.6986   12.0964 N.3     1  UNL1       -0.2934
     34 H          63.7286   87.7064   12.0786 H       1  UNL1        0.1236
@<TRIPOS>BOND
     1    19    20    1
     2    20    13    1
     3    13    14    2
     4    14    12    1
     5    12     1    1
     6     1    23    1
     7    24    23    1
     8    24    25    1
     9    25    26    1
    10    26    27   ar
    11    27    28   ar
    12    28    29   ar
    13    29    30   ar
    14    30    31   ar
    15    31    32    1
    16    32    33    1
    17     2     1    1
    18     2     3    1
    19     3     4    1
    20     4     5    1
    21     5     6    1
    22     6     7   ar
    23     7     8   ar
    24     8     9   ar
    25     9    10   ar
    26    10    11   ar
    27    14    15    1
    28    15    16    1
    29    16    17    1
    30    17    18    1
    31    18    13    1
    32    33    24    1
    33    11     2    1
    34    31    26   ar
    35    11     6   ar
    36    19    21    1
    37    19    22    1
    38    33    34    1
@<TRIPOS>MOLECULE
*****
 34 38 0 0 0
SMALL
GASTEIGER

@<TRIPOS>ATOM
      1 N          63.7108   89.9542   13.2970 N.3     1  UNL1       -0.2644
      2 C          64.4664   91.1340   12.7613 C.3     1  UNL1        0.0981
      3 C          64.3134   91.5327   11.3234 C.3     1  UNL1        0.0224
      4 C          65.0691   92.7125   10.7878 C.3     1  UNL1        0.0065
      5 C          65.9778   93.4937   11.6900 C.3     1  UNL1        0.0277
      6 C          66.1308   93.0950   13.1279 C.ar    1  UNL1       -0.0073
      7 C          67.0395   93.8762   14.0302 C.ar    1  UNL1       -0.0015
      8 C          67.1924   93.4775   15.4681 C.ar    1  UNL1        0.0203
      9 C          66.4368   92.2977   16.0038 C.ar    1  UNL1        0.0985
     10 N          65.5281   91.5165   15.1016 N.ar    1  UNL1       -0.2471
     11 C          65.3751   91.9152   13.6636 C.ar    1  UNL1        0.0695
     12 C          64.4525   88.8061   13.9147 C.3     1  UNL1        0.0946
     13 C          63.8601   86.6544   15.2450 C.2     1  UNL1       -0.0354
     14 C          63.9216   88.1505   15.1550 C.2     1  UNL1       -0.0349
     15 C          63.4521   88.9910   16.3053 C.3     1  UNL1        0.0228
     16 C          62.9212   88.3354   17.5456 C.3     1  UNL1        0.0047
     17 C          62.8597   86.8394   17.6357 C.3     1  UNL1        0.0047
     18 C          63.3292   85.9989   16.4853 C.3     1  UNL1        0.0228
     19 N          63.3510   85.3482   13.0577 N.3     1  UNL1       -0.3177
     20 C          64.3296   85.8140   14.0948 C.3     1  UNL1        0.0873
     21 H          63.8390   84.7928   12.3549 H       1  UNL1        0.1191
     22 H          62.9179   86.1567   12.6115 H       1  UNL1        0.1191
     23 C          62.2134   89.9225   13.2150 C.3     1  UNL1        0.0888
     24 C          61.5406   89.5326   11.9322 C.3     1  UNL1        0.0748
     25 C          61.7613   88.1659   11.3548 C.3     1  UNL1        0.0432
     26 C          61.0885   87.7760   10.0720 C.ar    1  UNL1       -0.0234
     27 C          61.3091   86.4093    9.4947 C.ar    1  UNL1       -0.0045
     28 C          60.6364   86.0195    8.2119 C.ar    1  UNL1       -0.0003
     29 C          59.7429   86.9964    7.5066 C.ar    1  UNL1       -0.0003
     30 C          59.5223   88.3631    8.0840 C.ar    1  UNL1       -0.0032
     31 C          60.1950   88.7529    9.3667 C.ar    1  UNL1       -0.0103
     32 C          59.9744   90.1197    9.9441 C.3     1  UNL1        0.0953
     33 N          60.6472   90.5095   11.2268 N.3     1  UNL1       -0.2934
     34 H          59.9074   90.7590   11.8833 H       1  UNL1        0.1236
@<TRIPOS>BOND
     1    19    20    1
     2    20    13    1
     3    13    14    2
     4    14    12    1
     5    12     1    1
     6     1    23    1
     7    24    23    1
     8    24    25    1
     9    25    26    1
    10    26    27   ar
    11    27    28   ar
    12    28    29   ar
    13    29    30   ar
    14    30    31   ar
    15    31    32    1
    16    32    33    1
    17     2     1    1
    18     2     3    1
    19     3     4    1
    20     4     5    1
    21     5     6    1
    22     6     7   ar
    23     7     8   ar
    24     8     9   ar
    25     9    10   ar
    26    10    11   ar
    27    14    15    1
    28    15    16    1
    29    16    17    1
    30    17    18    1
    31    18    13    1
    32    33    24    1
    33    11     2    1
    34    31    26   ar
    35    11     6   ar
    36    19    21    1
    37    19    22    1
    38    33    34    1
@<TRIPOS>MOLECULE
*****
 34 38 0 0 0
SMALL
GASTEIGER

@<TRIPOS>ATOM
      1 N          63.0951   85.4521   12.9099 N.3     1  UNL1       -0.2644
      2 C          63.3273   84.2168   12.0913 C.3     1  UNL1        0.0981
      3 C          63.9962   84.3189   10.7526 C.3     1  UNL1        0.0224
      4 C          64.2284   83.0836    9.9341 C.3     1  UNL1        0.0065
      5 C          63.7918   81.7461   10.4542 C.3     1  UNL1        0.0277
      6 C          63.1229   81.6440   11.7929 C.ar    1  UNL1       -0.0073
      7 C          62.6862   80.3065   12.3131 C.ar    1  UNL1       -0.0015
      8 C          62.0174   80.2044   13.6518 C.ar    1  UNL1        0.0203
      9 C          61.7852   81.4397   14.4704 C.ar    1  UNL1        0.0985
     10 N          62.2218   82.7772   13.9502 N.ar    1  UNL1       -0.2471
     11 C          62.8907   82.8793   12.6115 C.ar    1  UNL1        0.0695
     12 C          64.2091   86.0259   13.7344 C.3     1  UNL1        0.0946
     13 C          63.4814   87.0578   16.0050 C.2     1  UNL1       -0.0354
     14 C          63.9623   87.2297   14.5946 C.2     1  UNL1       -0.0349
     15 C          64.1964   88.6053   14.0444 C.3     1  UNL1        0.0228
     16 C          63.9496   89.8091   14.9046 C.3     1  UNL1        0.0047
     17 C          63.4688   89.6373   16.3150 C.3     1  UNL1        0.0047
     18 C          63.2347   88.2616   16.8652 C.3     1  UNL1        0.0228
     19 N          62.0161   84.9185   16.1668 N.3     1  UNL1       -0.3177
     20 C          63.2474   85.6821   16.5552 C.3     1  UNL1        0.0873
     21 H          62.0194   84.0097   16.6298 H       1  UNL1        0.1191
     22 H          62.0037   84.7849   15.1557 H       1  UNL1        0.1191
     23 C          61.7489   86.1136   12.9041 C.3     1  UNL1        0.0888
     24 C          61.3346   86.9608   11.7376 C.3     1  UNL1        0.0748
     25 C          60.7378   86.3200   10.5197 C.3     1  UNL1        0.0432
     26 C          60.3235   87.1673    9.3532 C.ar    1  UNL1       -0.0234
     27 C          59.7268   86.5265    8.1353 C.ar    1  UNL1       -0.0045
     28 C          59.3125   87.3737    6.9689 C.ar    1  UNL1       -0.0003
     29 C          59.4950   88.8617    7.0204 C.ar    1  UNL1       -0.0003
     30 C          60.0918   89.5024    8.2382 C.ar    1  UNL1       -0.0032
     31 C          60.5060   88.6552    9.4046 C.ar    1  UNL1       -0.0103
     32 C          61.1028   89.2960   10.6226 C.3     1  UNL1        0.0953
     33 N          61.5171   88.4488   11.7890 N.3     1  UNL1       -0.2934
     34 H          60.9910   88.7822   12.5967 H       1  UNL1        0.1236
@<TRIPOS>BOND
     1    19    20    1
     2    20    13    1
     3    13    14    2
     4    14    12    1
     5    12     1    1
     6     1    23    1
     7    24    23    1
     8    24    25    1
     9    25    26    1
    10    26    27   ar
    11    27    28   ar
    12    28    29   ar
    13    29    30   ar
    14    30    31   ar
    15    31    32    1
    16    32    33    1
    17     2     1    1
    18     2     3    1
    19     3     4    1
    20     4     5    1
    21     5     6    1
    22     6     7   ar
    23     7     8   ar
    24     8     9   ar
    25     9    10   ar
    26    10    11   ar
    27    14    15    1
    28    15    16    1
    29    16    17    1
    30    17    18    1
    31    18    13    1
    32    33    24    1
    33    11     2    1
    34    31    26   ar
    35    11     6   ar
    36    19    21    1
    37    19    22    1
    38    33    34    1
@<TRIPOS>MOLECULE
*****
 34 38 0 0 0
SMALL
GASTEIGER

@<TRIPOS>ATOM
      1 N          61.8287   87.2948   11.6237 N.3     1  UNL1       -0.2644
      2 C          62.4289   86.0961   10.9507 C.3     1  UNL1        0.0981
      3 C          62.7098   86.1252    9.4776 C.3     1  UNL1        0.0224
      4 C          63.3099   84.9265    8.8046 C.3     1  UNL1        0.0065
      5 C          63.6291   83.6986    9.6048 C.3     1  UNL1        0.0277
      6 C          63.3482   83.6695   11.0780 C.ar    1  UNL1       -0.0073
      7 C          63.6674   82.4415   11.8783 C.ar    1  UNL1       -0.0015
      8 C          63.3865   82.4124   13.3514 C.ar    1  UNL1        0.0203
      9 C          62.7864   83.6112   14.0243 C.ar    1  UNL1        0.0985
     10 N          62.4672   84.8390   13.2241 N.ar    1  UNL1       -0.2471
     11 C          62.7481   84.8682   11.7509 C.ar    1  UNL1        0.0695
     12 C          60.4180   87.7004   11.3149 C.3     1  UNL1        0.0946
     13 C          59.9222   89.4017    9.4149 C.2     1  UNL1       -0.0354
     14 C          60.0122   87.9848    9.8991 C.2     1  UNL1       -0.0349
     15 C          59.6964   86.8524    8.9675 C.3     1  UNL1        0.0228
     16 C          59.2906   87.1368    7.5518 C.3     1  UNL1        0.0047
     17 C          59.2006   88.5536    7.0675 C.3     1  UNL1        0.0047
     18 C          59.5164   89.6861    7.9991 C.3     1  UNL1        0.0228
     19 N          59.2437   90.9450   11.3917 N.3     1  UNL1       -0.3177
     20 C          60.2380   90.5341   10.3465 C.3     1  UNL1        0.0873
     21 H          59.6201   91.7244   11.9314 H       1  UNL1        0.1191
     22 H          59.0597   90.1580   12.0140 H       1  UNL1        0.1191
     23 C          62.6393   88.0880   12.6054 C.3     1  UNL1        0.0888
     24 C          63.2964   89.3663   12.1760 C.3     1  UNL1        0.0748
     25 C          64.1527   90.1306   13.1417 C.3     1  UNL1        0.0432
     26 C          64.8098   91.4088   12.7124 C.ar    1  UNL1       -0.0234
     27 C          65.6661   92.1731   13.6781 C.ar    1  UNL1       -0.0045
     28 C          66.3232   93.4513   13.2487 C.ar    1  UNL1       -0.0003
     29 C          66.1240   93.9652   11.8536 C.ar    1  UNL1       -0.0003
     30 C          65.2677   93.2009   10.8879 C.ar    1  UNL1       -0.0032
     31 C          64.6106   91.9227   11.3173 C.ar    1  UNL1       -0.0103
     32 C          63.7543   91.1584   10.3516 C.3     1  UNL1        0.0953
     33 N          63.0972   89.8802   10.7810 N.3     1  UNL1       -0.2934
     34 H          63.4289   89.1518   10.1487 H       1  UNL1        0.1236
@<TRIPOS>BOND
     1    19    20    1
     2    20    13    1
     3    13    14    2
     4    14    12    1
     5    12     1    1
     6     1    23    1
     7    24    23    1
     8    24    25    1
     9    25    26    1
    10    26    27   ar
    11    27    28   ar
    12    28    29   ar
    13    29    30   ar
    14    30    31   ar
    15    31    32    1
    16    32    33    1
    17     2     1    1
    18     2     3    1
    19     3     4    1
    20     4     5    1
    21     5     6    1
    22     6     7   ar
    23     7     8   ar
    24     8     9   ar
    25     9    10   ar
    26    10    11   ar
    27    14    15    1
    28    15    16    1
    29    16    17    1
    30    17    18    1
    31    18    13    1
    32    33    24    1
    33    11     2    1
    34    31    26   ar
    35    11     6   ar
    36    19    21    1
    37    19    22    1
    38    33    34    1
@<TRIPOS>MOLECULE
*****
 34 38 0 0 0
SMALL
GASTEIGER

@<TRIPOS>ATOM
      1 N          62.0295   87.5808   11.1594 N.3     1  UNL1       -0.2644
      2 C          61.0915   87.2875   10.0262 C.3     1  UNL1        0.0981
      3 C          59.7241   87.9036   10.0059 C.3     1  UNL1        0.0224
      4 C          58.7860   87.6103    8.8727 C.3     1  UNL1        0.0065
      5 C          59.2154   86.7008    7.7599 C.3     1  UNL1        0.0277
      6 C          60.5829   86.0847    7.7802 C.ar    1  UNL1       -0.0073
      7 C          61.0123   85.1751    6.6674 C.ar    1  UNL1       -0.0015
      8 C          62.3798   84.5590    6.6877 C.ar    1  UNL1        0.0203
      9 C          63.3178   84.8523    7.8209 C.ar    1  UNL1        0.0985
     10 N          62.8884   85.7618    8.9337 N.ar    1  UNL1       -0.2471
     11 C          61.5209   86.3780    8.9134 C.ar    1  UNL1        0.0695
     12 C          61.8420   88.8175   11.9873 C.3     1  UNL1        0.0946
     13 C          63.7040   90.1939   13.1657 C.2     1  UNL1       -0.0354
     14 C          62.8718   89.9076   11.9510 C.2     1  UNL1       -0.0349
     15 C          63.0693   90.7114   10.7000 C.3     1  UNL1        0.0228
     16 C          64.0990   91.8015   10.6637 C.3     1  UNL1        0.0047
     17 C          64.9312   92.0878   11.8784 C.3     1  UNL1        0.0047
     18 C          64.7338   91.2840   13.1294 C.3     1  UNL1        0.0228
     19 N          64.1931   88.0656   14.5733 N.3     1  UNL1       -0.3177
     20 C          63.5065   89.3901   14.4166 C.3     1  UNL1        0.0873
     21 H          63.9484   87.6606   15.4769 H       1  UNL1        0.1191
     22 H          65.2032   88.1981   14.5224 H       1  UNL1        0.1191
     23 C          63.1550   86.6374   11.4647 C.3     1  UNL1        0.0888
     24 C          62.8845   85.3623   12.2070 C.3     1  UNL1        0.0748
     25 C          63.0251   84.0429   11.5074 C.3     1  UNL1        0.0432
     26 C          62.7546   82.7678   12.2497 C.ar    1  UNL1       -0.0234
     27 C          62.8952   81.4484   11.5501 C.ar    1  UNL1       -0.0045
     28 C          62.6247   80.1734   12.2923 C.ar    1  UNL1       -0.0003
     29 C          62.2135   80.2177   13.7342 C.ar    1  UNL1       -0.0003
     30 C          62.0729   81.5371   14.4338 C.ar    1  UNL1       -0.0032
     31 C          62.3434   82.8121   13.6915 C.ar    1  UNL1       -0.0103
     32 C          62.2028   84.1316   14.3911 C.3     1  UNL1        0.0953
     33 N          62.4733   85.4066   13.6488 N.3     1  UNL1       -0.2934
     34 H          63.2180   85.8883   14.1527 H       1  UNL1        0.1236
@<TRIPOS>BOND
     1    19    20    1
     2    20    13    1
     3    13    14    2
     4    14    12    1
     5    12     1    1
     6     1    23    1
     7    24    23    1
     8    24    25    1
     9    25    26    1
    10    26    27   ar
    11    27    28   ar
    12    28    29   ar
    13    29    30   ar
    14    30    31   ar
    15    31    32    1
    16    32    33    1
    17     2     1    1
    18     2     3    1
    19     3     4    1
    20     4     5    1
    21     5     6    1
    22     6     7   ar
    23     7     8   ar
    24     8     9   ar
    25     9    10   ar
    26    10    11   ar
    27    14    15    1
    28    15    16    1
    29    16    17    1
    30    17    18    1
    31    18    13    1
    32    33    24    1
    33    11     2    1
    34    31    26   ar
    35    11     6   ar
    36    19    21    1
    37    19    22    1
    38    33    34    1
@<TRIPOS>MOLECULE
*****
 34 38 0 0 0
SMALL
GASTEIGER

@<TRIPOS>ATOM
      1 N          63.5105   89.6763   13.2102 N.3     1  UNL1       -0.2644
      2 C          64.1643   90.8527   12.5479 C.3     1  UNL1        0.0981
      3 C          63.8933   91.1455   11.1020 C.3     1  UNL1        0.0224
      4 C          64.5470   92.3219   10.4396 C.3     1  UNL1        0.0065
      5 C          65.4717   93.2056   11.2233 C.3     1  UNL1        0.0277
      6 C          65.7427   92.9128   12.6692 C.ar    1  UNL1       -0.0073
      7 C          66.6674   93.7965   13.4529 C.ar    1  UNL1       -0.0015
      8 C          66.9383   93.5037   14.8989 C.ar    1  UNL1        0.0203
      9 C          66.2846   92.3273   15.5612 C.ar    1  UNL1        0.0985
     10 N          65.3599   91.4436   14.7776 N.ar    1  UNL1       -0.2471
     11 C          65.0889   91.7364   13.3315 C.ar    1  UNL1        0.0695
     12 C          62.0746   89.3545   12.9198 C.3     1  UNL1        0.0946
     13 C          60.6787   89.6194   10.7446 C.2     1  UNL1       -0.0354
     14 C          61.6776   88.8553   11.5622 C.2     1  UNL1       -0.0349
     15 C          62.2795   87.5919   11.0221 C.3     1  UNL1        0.0228
     16 C          61.8825   87.0927    9.6644 C.3     1  UNL1        0.0047
     17 C          60.8837   87.8568    8.8469 C.3     1  UNL1        0.0047
     18 C          60.2817   89.1202    9.3870 C.3     1  UNL1        0.0228
     19 N          58.6998   90.8630   11.8793 N.3     1  UNL1       -0.3177
     20 C          60.0768   90.8827   11.2847 C.3     1  UNL1        0.0873
     21 H          58.4518   91.8011   12.1938 H       1  UNL1        0.1191
     22 H          58.6812   90.2223   12.6728 H       1  UNL1        0.1191
     23 C          64.2928   88.8218   14.1630 C.3     1  UNL1        0.0888
     24 C          63.8873   87.3969   14.3987 C.3     1  UNL1        0.0748
     25 C          63.7873   86.4448   13.2441 C.3     1  UNL1        0.0432
     26 C          63.3818   85.0199   13.4798 C.ar    1  UNL1       -0.0234
     27 C          63.2818   84.0677   12.3251 C.ar    1  UNL1       -0.0045
     28 C          62.8764   82.6430   12.5609 C.ar    1  UNL1       -0.0003
     29 C          62.5709   82.1704   13.9513 C.ar    1  UNL1       -0.0003
     30 C          62.6709   83.1226   15.1060 C.ar    1  UNL1       -0.0032
     31 C          63.0763   84.5473   14.8702 C.ar    1  UNL1       -0.0103
     32 C          63.1763   85.4996   16.0249 C.3     1  UNL1        0.0953
     33 N          63.5818   86.9243   15.7892 N.3     1  UNL1       -0.2934
     34 H          64.4202   87.0880   16.3466 H       1  UNL1        0.1236
@<TRIPOS>BOND
     1    19    20    1
     2    20    13    1
     3    13    14    2
     4    14    12    1
     5    12     1    1
     6     1    23    1
     7    24    23    1
     8    24    25    1
     9    25    26    1
    10    26    27   ar
    11    27    28   ar
    12    28    29   ar
    13    29    30   ar
    14    30    31   ar
    15    31    32    1
    16    32    33    1
    17     2     1    1
    18     2     3    1
    19     3     4    1
    20     4     5    1
    21     5     6    1
    22     6     7   ar
    23     7     8   ar
    24     8     9   ar
    25     9    10   ar
    26    10    11   ar
    27    14    15    1
    28    15    16    1
    29    16    17    1
    30    17    18    1
    31    18    13    1
    32    33    24    1
    33    11     2    1
    34    31    26   ar
    35    11     6   ar
    36    19    21    1
    37    19    22    1
    38    33    34    1
@<TRIPOS>MOLECULE
*****
 34 38 0 0 0
SMALL
GASTEIGER

@<TRIPOS>ATOM
      1 N          62.6336   86.1436   11.4291 N.3     1  UNL1       -0.2644
      2 C          62.3691   85.7899    9.9956 C.3     1  UNL1        0.0981
      3 C          63.2775   84.8357    9.2786 C.3     1  UNL1        0.0224
      4 C          63.0130   84.4820    7.8451 C.3     1  UNL1        0.0065
      5 C          61.8400   85.0825    7.1286 C.3     1  UNL1        0.0277
      6 C          60.9316   86.0368    7.8456 C.ar    1  UNL1       -0.0073
      7 C          59.7586   86.6374    7.1290 C.ar    1  UNL1       -0.0015
      8 C          58.8501   87.5916    7.8460 C.ar    1  UNL1        0.0203
      9 C          59.1146   87.9453    9.2795 C.ar    1  UNL1        0.0985
     10 N          60.2876   87.3448    9.9961 N.ar    1  UNL1       -0.2471
     11 C          61.1961   86.3905    9.2791 C.ar    1  UNL1        0.0695
     12 C          63.5040   85.2590   12.2715 C.3     1  UNL1        0.0946
     13 C          62.6984   83.7788   14.2489 C.2     1  UNL1       -0.0354
     14 C          62.9730   83.9533   12.7846 C.2     1  UNL1       -0.0349
     15 C          62.7167   82.8222   11.8334 C.3     1  UNL1        0.0228
     16 C          62.1857   81.5166   12.3465 C.3     1  UNL1        0.0047
     17 C          61.9110   81.3420   13.8107 C.3     1  UNL1        0.0047
     18 C          62.1674   82.4731   14.7620 C.3     1  UNL1        0.0228
     19 N          64.3319   85.1266   15.7540 N.3     1  UNL1       -0.3177
     20 C          62.9548   84.9099   15.2001 C.3     1  UNL1        0.0873
     21 H          64.3241   85.9329   16.3787 H       1  UNL1        0.1191
     22 H          64.9837   85.2962   14.9880 H       1  UNL1        0.1191
     23 C          62.0276   87.3819   12.0202 C.3     1  UNL1        0.0888
     24 C          62.7719   88.6829   11.9609 C.3     1  UNL1        0.0748
     25 C          63.6438   89.1011   13.1076 C.3     1  UNL1        0.0432
     26 C          64.3881   90.4021   13.0484 C.ar    1  UNL1       -0.0234
     27 C          65.2600   90.8202   14.1951 C.ar    1  UNL1       -0.0045
     28 C          66.0043   92.1212   14.1358 C.ar    1  UNL1       -0.0003
     29 C          65.8766   93.0040   12.9298 C.ar    1  UNL1       -0.0003
     30 C          65.0047   92.5859   11.7831 C.ar    1  UNL1       -0.0032
     31 C          64.2605   91.2849   11.8424 C.ar    1  UNL1       -0.0103
     32 C          63.3885   90.8667   10.6957 C.3     1  UNL1        0.0953
     33 N          62.6443   89.5658   10.7550 N.3     1  UNL1       -0.2934
     34 H          62.9502   89.0147    9.9530 H       1  UNL1        0.1236
@<TRIPOS>BOND
     1    19    20    1
     2    20    13    1
     3    13    14    2
     4    14    12    1
     5    12     1    1
     6     1    23    1
     7    24    23    1
     8    24    25    1
     9    25    26    1
    10    26    27   ar
    11    27    28   ar
    12    28    29   ar
    13    29    30   ar
    14    30    31   ar
    15    31    32    1
    16    32    33    1
    17     2     1    1
    18     2     3    1
    19     3     4    1
    20     4     5    1
    21     5     6    1
    22     6     7   ar
    23     7     8   ar
    24     8     9   ar
    25     9    10   ar
    26    10    11   ar
    27    14    15    1
    28    15    16    1
    29    16    17    1
    30    17    18    1
    31    18    13    1
    32    33    24    1
    33    11     2    1
    34    31    26   ar
    35    11     6   ar
    36    19    21    1
    37    19    22    1
    38    33    34    1
@<TRIPOS>MOLECULE
*****
 34 38 0 0 0
SMALL
GASTEIGER

@<TRIPOS>ATOM
      1 N          62.5612   87.3653   11.4320 N.3     1  UNL1       -0.2644
      2 C          62.8041   85.9467   11.8544 C.3     1  UNL1        0.0981
      3 C          62.4537   84.8184   10.9302 C.3     1  UNL1        0.0224
      4 C          62.6966   83.3998   11.3526 C.3     1  UNL1        0.0065
      5 C          63.2899   83.1094   12.6993 C.3     1  UNL1        0.0277
      6 C          63.6403   84.2376   13.6236 C.ar    1  UNL1       -0.0073
      7 C          64.2336   83.9473   14.9703 C.ar    1  UNL1       -0.0015
      8 C          64.5840   85.0755   15.8946 C.ar    1  UNL1        0.0203
      9 C          64.3411   86.4942   15.4721 C.ar    1  UNL1        0.0985
     10 N          63.7478   86.7846   14.1254 N.ar    1  UNL1       -0.2471
     11 C          63.3974   85.6563   13.2011 C.ar    1  UNL1        0.0695
     12 C          62.5961   87.7313    9.9777 C.3     1  UNL1        0.0946
     13 C          60.3675   88.5649    8.9344 C.2     1  UNL1       -0.0354
     14 C          61.3946   87.4865    9.1137 C.2     1  UNL1       -0.0349
     15 C          61.2202   86.1633    8.4290 C.3     1  UNL1        0.0228
     16 C          60.0187   85.9186    7.5650 C.3     1  UNL1        0.0047
     17 C          58.9917   86.9969    7.3856 C.3     1  UNL1        0.0047
     18 C          59.1661   88.3202    8.0703 C.3     1  UNL1        0.0228
     19 N          59.7307   90.2146   10.8378 N.3     1  UNL1       -0.3177
     20 C          60.5419   89.8881    9.6190 C.3     1  UNL1        0.0873
     21 H          59.9762   91.1473   11.1697 H       1  UNL1        0.1191
     22 H          59.9258   89.5311   11.5692 H       1  UNL1        0.1191
     23 C          62.2834   88.4180   12.4637 C.3     1  UNL1        0.0888
     24 C          63.2450   89.5533   12.6547 C.3     1  UNL1        0.0748
     25 C          63.4887   90.5256   11.5388 C.3     1  UNL1        0.0432
     26 C          64.4503   91.6609   11.7298 C.ar    1  UNL1       -0.0234
     27 C          64.6940   92.6332   10.6139 C.ar    1  UNL1       -0.0045
     28 C          65.6556   93.7684   10.8050 C.ar    1  UNL1       -0.0003
     29 C          66.3736   93.9314   12.1119 C.ar    1  UNL1       -0.0003
     30 C          66.1299   92.9591   13.2277 C.ar    1  UNL1       -0.0032
     31 C          65.1683   91.8238   13.0367 C.ar    1  UNL1       -0.0103
     32 C          64.9246   90.8515   14.1526 C.3     1  UNL1        0.0953
     33 N          63.9630   89.7162   13.9616 N.3     1  UNL1       -0.2934
     34 H          63.2465   89.8130   14.6811 H       1  UNL1        0.1236
@<TRIPOS>BOND
     1    19    20    1
     2    20    13    1
     3    13    14    2
     4    14    12    1
     5    12     1    1
     6     1    23    1
     7    24    23    1
     8    24    25    1
     9    25    26    1
    10    26    27   ar
    11    27    28   ar
    12    28    29   ar
    13    29    30   ar
    14    30    31   ar
    15    31    32    1
    16    32    33    1
    17     2     1    1
    18     2     3    1
    19     3     4    1
    20     4     5    1
    21     5     6    1
    22     6     7   ar
    23     7     8   ar
    24     8     9   ar
    25     9    10   ar
    26    10    11   ar
    27    14    15    1
    28    15    16    1
    29    16    17    1
    30    17    18    1
    31    18    13    1
    32    33    24    1
    33    11     2    1
    34    31    26   ar
    35    11     6   ar
    36    19    21    1
    37    19    22    1
    38    33    34    1
