@<TRIPOS>MOLECULE
*****
 26 28 0 0 0
SMALL
GASTEIGER

@<TRIPOS>ATOM
      1 C          62.4372   85.6714   10.8114 C.3     1  UNL1        0.0290
      2 C          63.1700   84.6978    9.9368 C.3     1  UNL1        0.0870
      3 C          63.6099   83.5466   10.7919 C.2     1  UNL1        0.2258
      4 O          64.3761   82.3443   10.3257 O.2     1  UNL1       -0.2749
      5 N          63.1488   83.8087   12.1949 N.am    1  UNL1       -0.2757
      6 C          62.4241   85.1220   12.2071 C.3     1  UNL1        0.0940
      7 C          59.1108   88.5783    7.1607 C.3     1  UNL1        0.0896
      8 N          60.0155   88.0412    8.2299 N.3     1  UNL1       -0.2715
      9 C          60.5767   88.9640    9.2708 C.3     1  UNL1        0.0721
     10 C          61.4813   88.4269   10.3400 C.3     1  UNL1        0.0174
     11 C          61.8249   86.9671   10.3682 C.3     1  UNL1        0.0047
     12 C          62.5987   87.4399   11.5631 C.3     1  UNL1        0.0002
     13 C          61.2637   86.0443    9.3273 C.3     1  UNL1        0.0174
     14 C          60.3591   86.5814    8.2581 C.3     1  UNL1        0.0721
     15 C          63.3732   82.9145   13.3783 C.3     1  UNL1        0.1406
     16 C          63.2321   83.4604   14.7683 C.3     1  UNL1        0.2268
     17 O          64.2930   84.3580   15.3328 O.3     1  UNL1       -0.4736
     18 C          63.9510   85.7614   15.7369 C.ar    1  UNL1        0.1395
     19 C          63.2020   86.0133   17.0120 C.ar    1  UNL1        0.0392
     20 C          62.8600   87.4168   17.4161 C.ar    1  UNL1        0.0334
     21 C          63.2668   88.5684   16.5453 C.ar    1  UNL1        0.1499
     22 F          62.9248   89.9718   16.9494 F       1  UNL1       -0.2035
     23 C          64.0158   88.3164   15.2703 C.ar    1  UNL1        0.0988
     24 C          64.3578   86.9130   14.8662 C.ar    1  UNL1        0.0494
     25 C          64.4226   89.4680   14.3994 C.1     1  UNL1        0.1028
     26 N          64.8295   90.6195   13.5285 N.1     1  UNL1       -0.1908
@<TRIPOS>BOND
     1     7     8    1
     2     8     9    1
     3     9    10    1
     4    10    11    1
     5    11    12    1
     6    11     1    1
     7     1     2    1
     8     2     3    1
     9     3     4    2
    10     3     5   am
    11     5    15    1
    12    15    16    1
    13    16    17    1
    14    17    18    1
    15    18    19   ar
    16    19    20   ar
    17    20    21   ar
    18    21    22    1
    19    21    23   ar
    20    23    25    1
    21    25    26    3
    22    23    24   ar
    23     5     6    1
    24    11    13    1
    25    13    14    1
    26    14     8    1
    27     6     1    1
    28    24    18   ar
@<TRIPOS>MOLECULE
*****
 26 28 0 0 0
SMALL
GASTEIGER

@<TRIPOS>ATOM
      1 C          61.8080   86.1608    9.4001 C.3     1  UNL1        0.0290
      2 C          60.6361   86.1635    8.4638 C.3     1  UNL1        0.0870
      3 C          59.9790   87.5093    8.5475 C.2     1  UNL1        0.2258
      4 O          58.7686   87.9488    7.7783 O.2     1  UNL1       -0.2749
      5 N          60.7448   88.3383    9.5356 N.am    1  UNL1       -0.2757
      6 C          61.8752   87.5049   10.0625 C.3     1  UNL1        0.0940
      7 C          64.1685   82.3447   12.9648 C.3     1  UNL1        0.0896
      8 N          63.6949   83.2348   11.8542 N.3     1  UNL1       -0.2715
      9 C          64.2355   83.0551   10.4666 C.3     1  UNL1        0.0721
     10 C          63.7619   83.9452    9.3560 C.3     1  UNL1        0.0174
     11 C          62.7478   85.0151    9.6330 C.3     1  UNL1        0.0047
     12 C          62.9619   85.2332    8.1645 C.3     1  UNL1        0.0002
     13 C          62.2072   85.1949   11.0206 C.3     1  UNL1        0.0174
     14 C          62.6808   84.3047   12.1312 C.3     1  UNL1        0.0721
     15 C          60.4346   89.7525    9.9279 C.3     1  UNL1        0.1406
     16 C          61.3819   90.5114   10.8092 C.3     1  UNL1        0.2268
     17 O          61.8118   89.9306   12.1237 O.3     1  UNL1       -0.4736
     18 C          63.1055   90.3630   12.7475 C.ar    1  UNL1        0.1395
     19 C          63.6298   89.6493   13.9582 C.ar    1  UNL1        0.0392
     20 C          64.9236   90.0818   14.5820 C.ar    1  UNL1        0.0334
     21 C          65.6931   91.2280   13.9953 C.ar    1  UNL1        0.1499
     22 F          66.9868   91.6604   14.6191 F       1  UNL1       -0.2035
     23 C          65.1687   91.9416   12.7846 C.ar    1  UNL1        0.0988
     24 C          63.8749   91.5091   12.1608 C.ar    1  UNL1        0.0494
     25 C          65.9381   93.0878   12.1978 C.1     1  UNL1        0.1028
     26 N          66.7075   94.2339   11.6110 N.1     1  UNL1       -0.1908
@<TRIPOS>BOND
     1     7     8    1
     2     8     9    1
     3     9    10    1
     4    10    11    1
     5    11    12    1
     6    11     1    1
     7     1     2    1
     8     2     3    1
     9     3     4    2
    10     3     5   am
    11     5    15    1
    12    15    16    1
    13    16    17    1
    14    17    18    1
    15    18    19   ar
    16    19    20   ar
    17    20    21   ar
    18    21    22    1
    19    21    23   ar
    20    23    25    1
    21    25    26    3
    22    23    24   ar
    23     5     6    1
    24    11    13    1
    25    13    14    1
    26    14     8    1
    27     6     1    1
    28    24    18   ar
@<TRIPOS>MOLECULE
*****
 26 28 0 0 0
SMALL
GASTEIGER

@<TRIPOS>ATOM
      1 C          61.7759   86.1173    9.3202 C.3     1  UNL1        0.0290
      2 C          60.5906   86.0065    8.4077 C.3     1  UNL1        0.0870
      3 C          59.9061   87.3408    8.3730 C.2     1  UNL1        0.2258
      4 O          58.6754   87.6801    7.5855 O.2     1  UNL1       -0.2749
      5 N          60.6684   88.2761    9.2641 N.am    1  UNL1       -0.2757
      6 C          61.8240   87.5199    9.8495 C.3     1  UNL1        0.0940
      7 C          64.1565   82.6026   13.1702 C.3     1  UNL1        0.0896
      8 N          63.6854   83.4078   11.9955 N.3     1  UNL1       -0.2715
      9 C          64.2671   83.1608   10.6352 C.3     1  UNL1        0.0721
     10 C          63.7960   83.9660    9.4606 C.3     1  UNL1        0.0174
     11 C          62.7433   85.0182    9.6463 C.3     1  UNL1        0.0047
     12 C          62.9890   85.1528    8.1726 C.3     1  UNL1        0.0002
     13 C          62.1617   85.2653   11.0066 C.3     1  UNL1        0.0174
     14 C          62.6327   84.4600   12.1813 C.3     1  UNL1        0.0721
     15 C          60.3338   89.7151    9.5241 C.3     1  UNL1        0.1406
     16 C          61.0158   90.4544   10.6369 C.3     1  UNL1        0.2268
     17 O          62.4454   90.8829   10.4870 O.3     1  UNL1       -0.4736
     18 C          63.3315   90.9740   11.6938 C.ar    1  UNL1        0.1395
     19 C          64.5456   91.8547   11.6681 C.ar    1  UNL1        0.0392
     20 C          65.4317   91.9458   12.8750 C.ar    1  UNL1        0.0334
     21 C          65.1038   91.1564   14.1076 C.ar    1  UNL1        0.1499
     22 F          65.9899   91.2476   15.3145 F       1  UNL1       -0.2035
     23 C          63.8898   90.2758   14.1333 C.ar    1  UNL1        0.0988
     24 C          63.0037   90.1847   12.9264 C.ar    1  UNL1        0.0494
     25 C          63.5618   89.4864   15.3659 C.1     1  UNL1        0.1028
     26 N          63.2339   88.6969   16.5985 N.1     1  UNL1       -0.1908
@<TRIPOS>BOND
     1     7     8    1
     2     8     9    1
     3     9    10    1
     4    10    11    1
     5    11    12    1
     6    11     1    1
     7     1     2    1
     8     2     3    1
     9     3     4    2
    10     3     5   am
    11     5    15    1
    12    15    16    1
    13    16    17    1
    14    17    18    1
    15    18    19   ar
    16    19    20   ar
    17    20    21   ar
    18    21    22    1
    19    21    23   ar
    20    23    25    1
    21    25    26    3
    22    23    24   ar
    23     5     6    1
    24    11    13    1
    25    13    14    1
    26    14     8    1
    27     6     1    1
    28    24    18   ar
@<TRIPOS>MOLECULE
*****
 26 28 0 0 0
SMALL
GASTEIGER

@<TRIPOS>ATOM
      1 C          62.5971   90.2749   11.3024 C.3     1  UNL1        0.0290
      2 C          61.4871   89.9836   12.2682 C.3     1  UNL1        0.0870
      3 C          60.4914   89.0997   11.5772 C.2     1  UNL1        0.2258
      4 O          59.2236   88.5648   12.1742 O.2     1  UNL1       -0.2749
      5 N          60.9861   88.8449   10.1842 N.am    1  UNL1       -0.2757
      6 C          62.2875   89.5712   10.0144 C.3     1  UNL1        0.0940
      7 C          66.8191   91.8759   14.8313 C.3     1  UNL1        0.0896
      8 N          65.8143   91.6244   13.7463 N.3     1  UNL1       -0.2715
      9 C          65.9019   92.3795   12.4533 C.3     1  UNL1        0.0721
     10 C          64.8972   92.1280   11.3683 C.3     1  UNL1        0.0174
     11 C          63.8048   91.1214   11.5764 C.3     1  UNL1        0.0047
     12 C          63.4730   91.5825   10.1881 C.3     1  UNL1        0.0002
     13 C          63.7171   90.3663   12.8695 C.3     1  UNL1        0.0174
     14 C          64.7219   90.6178   13.9544 C.3     1  UNL1        0.0721
     15 C          60.2998   88.0103    9.1438 C.3     1  UNL1        0.1406
     16 C          60.6431   86.5570    9.0019 C.3     1  UNL1        0.2268
     17 O          62.0749   86.1357    8.8524 O.3     1  UNL1       -0.4736
     18 C          62.6822   85.1806    9.8368 C.ar    1  UNL1        0.1395
     19 C          63.6027   84.0965    9.3598 C.ar    1  UNL1        0.0392
     20 C          64.2101   83.1414   10.3441 C.ar    1  UNL1        0.0334
     21 C          63.8971   83.2703   11.8054 C.ar    1  UNL1        0.1499
     22 F          64.5045   82.3153   12.7897 F       1  UNL1       -0.2035
     23 C          62.9766   84.3544   12.2823 C.ar    1  UNL1        0.0988
     24 C          62.3692   85.3095   11.2980 C.ar    1  UNL1        0.0494
     25 C          62.6635   84.4835   13.7437 C.1     1  UNL1        0.1028
     26 N          62.3504   84.6125   15.2049 N.1     1  UNL1       -0.1908
@<TRIPOS>BOND
     1     7     8    1
     2     8     9    1
     3     9    10    1
     4    10    11    1
     5    11    12    1
     6    11     1    1
     7     1     2    1
     8     2     3    1
     9     3     4    2
    10     3     5   am
    11     5    15    1
    12    15    16    1
    13    16    17    1
    14    17    18    1
    15    18    19   ar
    16    19    20   ar
    17    20    21   ar
    18    21    22    1
    19    21    23   ar
    20    23    25    1
    21    25    26    3
    22    23    24   ar
    23     5     6    1
    24    11    13    1
    25    13    14    1
    26    14     8    1
    27     6     1    1
    28    24    18   ar
@<TRIPOS>MOLECULE
*****
 26 28 0 0 0
SMALL
GASTEIGER

@<TRIPOS>ATOM
      1 C          62.2336   89.3351   11.1579 C.3     1  UNL1        0.0290
      2 C          62.8028   90.7061   11.3735 C.3     1  UNL1        0.0870
      3 C          63.6417   90.6694   12.6165 C.2     1  UNL1        0.2258
      4 O          64.3984   91.8236   13.2038 O.2     1  UNL1       -0.2749
      5 N          63.5910   89.2758   13.1689 N.am    1  UNL1       -0.2757
      6 C          62.7207   88.4511   12.2674 C.3     1  UNL1        0.0940
      7 C          60.6378   85.4249    7.2842 C.3     1  UNL1        0.0896
      8 N          60.8702   86.5902    8.1996 N.3     1  UNL1       -0.2715
      9 C          60.0157   87.8175    8.0832 C.3     1  UNL1        0.0721
     10 C          60.2481   88.9828    8.9986 C.3     1  UNL1        0.0174
     11 C          61.3350   88.9209   10.0304 C.3     1  UNL1        0.0047
     12 C          60.7926   90.2921   10.3056 C.3     1  UNL1        0.0002
     13 C          62.1896   87.6936   10.1468 C.3     1  UNL1        0.0174
     14 C          61.9571   86.5283    9.2314 C.3     1  UNL1        0.0721
     15 C          64.2881   88.7917   14.4058 C.3     1  UNL1        0.1406
     16 C          64.5783   87.3304   14.5800 C.3     1  UNL1        0.2268
     17 O          63.5600   86.4348   15.2210 O.3     1  UNL1       -0.4736
     18 C          63.2976   85.0711   14.6540 C.ar    1  UNL1        0.1395
     19 C          62.4748   84.0832   15.4268 C.ar    1  UNL1        0.0392
     20 C          62.2125   82.7195   14.8597 C.ar    1  UNL1        0.0334
     21 C          62.7728   82.3437   13.5200 C.ar    1  UNL1        0.1499
     22 F          62.5105   80.9800   12.9530 F       1  UNL1       -0.2035
     23 C          63.5956   83.3316   12.7474 C.ar    1  UNL1        0.0988
     24 C          63.8580   84.6953   13.3144 C.ar    1  UNL1        0.0494
     25 C          64.1560   82.9559   11.4076 C.1     1  UNL1        0.1028
     26 N          64.7164   82.5801   10.0680 N.1     1  UNL1       -0.1908
@<TRIPOS>BOND
     1     7     8    1
     2     8     9    1
     3     9    10    1
     4    10    11    1
     5    11    12    1
     6    11     1    1
     7     1     2    1
     8     2     3    1
     9     3     4    2
    10     3     5   am
    11     5    15    1
    12    15    16    1
    13    16    17    1
    14    17    18    1
    15    18    19   ar
    16    19    20   ar
    17    20    21   ar
    18    21    22    1
    19    21    23   ar
    20    23    25    1
    21    25    26    3
    22    23    24   ar
    23     5     6    1
    24    11    13    1
    25    13    14    1
    26    14     8    1
    27     6     1    1
    28    24    18   ar
@<TRIPOS>MOLECULE
*****
 26 28 0 0 0
SMALL
GASTEIGER

@<TRIPOS>ATOM
      1 C          62.4398   87.8483   11.3633 C.3     1  UNL1        0.0290
      2 C          62.8503   89.2735   11.5872 C.3     1  UNL1        0.0870
      3 C          63.6425   89.3332   12.8596 C.2     1  UNL1        0.2258
      4 O          64.2491   90.5650   13.4635 O.2     1  UNL1       -0.2749
      5 N          63.7215   87.9449   13.4220 N.am    1  UNL1       -0.2757
      6 C          62.9781   87.0271   12.4972 C.3     1  UNL1        0.0940
      7 C          58.9939   88.8593    6.8973 C.3     1  UNL1        0.0896
      8 N          59.8735   88.3510    8.0009 N.3     1  UNL1       -0.2715
      9 C          60.1334   86.8799    8.1355 C.3     1  UNL1        0.0721
     10 C          61.0130   86.3716    9.2391 C.3     1  UNL1        0.0174
     11 C          61.6326   87.3344   10.2082 C.3     1  UNL1        0.0047
     12 C          62.1729   86.0417   10.7439 C.3     1  UNL1        0.0002
     13 C          61.3726   88.8055   10.0736 C.3     1  UNL1        0.0174
     14 C          60.4930   89.3138    8.9699 C.3     1  UNL1        0.0721
     15 C          64.4210   87.5446   14.6872 C.3     1  UNL1        0.1406
     16 C          64.9103   86.1373   14.8606 C.3     1  UNL1        0.2268
     17 O          63.9713   85.0705   15.3403 O.3     1  UNL1       -0.4736
     18 C          63.6575   83.8966   14.4608 C.ar    1  UNL1        0.1395
     19 C          64.5605   83.5578   13.3119 C.ar    1  UNL1        0.0392
     20 C          64.2467   82.3839   12.4324 C.ar    1  UNL1        0.0334
     21 C          63.0301   81.5488   12.7017 C.ar    1  UNL1        0.1499
     22 F          62.7163   80.3749   11.8222 F       1  UNL1       -0.2035
     23 C          62.1272   81.8877   13.8506 C.ar    1  UNL1        0.0988
     24 C          62.4410   83.0616   14.7301 C.ar    1  UNL1        0.0494
     25 C          60.9106   81.0527   14.1200 C.1     1  UNL1        0.1028
     26 N          59.6940   80.2177   14.3894 N.1     1  UNL1       -0.1908
@<TRIPOS>BOND
     1     7     8    1
     2     8     9    1
     3     9    10    1
     4    10    11    1
     5    11    12    1
     6    11     1    1
     7     1     2    1
     8     2     3    1
     9     3     4    2
    10     3     5   am
    11     5    15    1
    12    15    16    1
    13    16    17    1
    14    17    18    1
    15    18    19   ar
    16    19    20   ar
    17    20    21   ar
    18    21    22    1
    19    21    23   ar
    20    23    25    1
    21    25    26    3
    22    23    24   ar
    23     5     6    1
    24    11    13    1
    25    13    14    1
    26    14     8    1
    27     6     1    1
    28    24    18   ar
@<TRIPOS>MOLECULE
*****
 26 28 0 0 0
SMALL
GASTEIGER

@<TRIPOS>ATOM
      1 C          62.8722   84.8044   11.6831 C.3     1  UNL1        0.0290
      2 C          62.8251   83.4634   12.3534 C.3     1  UNL1        0.0870
      3 C          63.2993   83.6346   13.7662 C.2     1  UNL1        0.2258
      4 O          63.4133   82.5495   14.7955 O.2     1  UNL1       -0.2749
      5 N          63.6395   85.0814   13.9689 N.am    1  UNL1       -0.2757
      6 C          63.3755   85.8044   12.6814 C.3     1  UNL1        0.0940
      7 C          59.6744   87.7193    7.9255 C.3     1  UNL1        0.0896
      8 N          60.6110   86.8444    8.7048 N.3     1  UNL1       -0.2715
      9 C          61.5230   85.8949    7.9862 C.3     1  UNL1        0.0721
     10 C          62.4596   85.0199    8.7655 C.3     1  UNL1        0.0174
     11 C          62.4841   85.0946   10.2634 C.3     1  UNL1        0.0047
     12 C          63.5310   84.0442   10.0378 C.3     1  UNL1        0.0002
     13 C          61.5721   86.0441   10.9820 C.3     1  UNL1        0.0174
     14 C          60.6355   86.9190   10.2027 C.3     1  UNL1        0.0721
     15 C          64.1534   85.6971   15.2365 C.3     1  UNL1        0.1406
     16 C          64.5639   87.1397   15.2569 C.3     1  UNL1        0.2268
     17 O          63.5515   88.2115   14.9809 O.3     1  UNL1       -0.4736
     18 C          63.8981   89.3549   14.0740 C.ar    1  UNL1        0.1395
     19 C          63.1499   89.5454   12.7880 C.ar    1  UNL1        0.0392
     20 C          63.4964   90.6888   11.8810 C.ar    1  UNL1        0.0334
     21 C          64.5912   91.6417   12.2601 C.ar    1  UNL1        0.1499
     22 F          64.9377   92.7851   11.3531 F       1  UNL1       -0.2035
     23 C          65.3393   91.4511   13.5461 C.ar    1  UNL1        0.0988
     24 C          64.9928   90.3077   14.4530 C.ar    1  UNL1        0.0494
     25 C          66.4341   92.4039   13.9252 C.1     1  UNL1        0.1028
     26 N          67.5288   93.3567   14.3044 N.1     1  UNL1       -0.1908
@<TRIPOS>BOND
     1     7     8    1
     2     8     9    1
     3     9    10    1
     4    10    11    1
     5    11    12    1
     6    11     1    1
     7     1     2    1
     8     2     3    1
     9     3     4    2
    10     3     5   am
    11     5    15    1
    12    15    16    1
    13    16    17    1
    14    17    18    1
    15    18    19   ar
    16    19    20   ar
    17    20    21   ar
    18    21    22    1
    19    21    23   ar
    20    23    25    1
    21    25    26    3
    22    23    24   ar
    23     5     6    1
    24    11    13    1
    25    13    14    1
    26    14     8    1
    27     6     1    1
    28    24    18   ar
@<TRIPOS>MOLECULE
*****
 26 28 0 0 0
SMALL
GASTEIGER

@<TRIPOS>ATOM
      1 C          63.8944   87.6256   13.9221 C.3     1  UNL1        0.0290
      2 C          64.0529   88.6433   15.0125 C.3     1  UNL1        0.0870
      3 C          63.7623   89.9951   14.4308 C.2     1  UNL1        0.2258
      4 O          63.8027   91.2999   15.1693 O.2     1  UNL1       -0.2749
      5 N          63.4242   89.8127   12.9808 N.am    1  UNL1       -0.2757
      6 C          63.5058   88.3482   12.6664 C.3     1  UNL1        0.0940
      7 C          62.6593   82.2899   12.2349 C.3     1  UNL1        0.0896
      8 N          63.1362   83.5749   12.8442 N.3     1  UNL1       -0.2715
      9 C          64.1305   83.5491   13.9669 C.3     1  UNL1        0.0721
     10 C          64.6074   84.8341   14.5762 C.3     1  UNL1        0.0174
     11 C          64.0901   86.1450   14.0626 C.3     1  UNL1        0.0047
     12 C          65.0164   86.6334   15.1366 C.3     1  UNL1        0.0002
     13 C          63.0957   86.1709   12.9399 C.3     1  UNL1        0.0174
     14 C          62.6188   84.8858   12.3307 C.3     1  UNL1        0.0721
     15 C          63.0671   90.9033   12.0148 C.3     1  UNL1        0.1406
     16 C          62.6986   90.5622   10.6013 C.3     1  UNL1        0.2268
     17 O          61.2924   90.1594   10.2693 O.3     1  UNL1       -0.4736
     18 C          61.0365   88.9062    9.4857 C.ar    1  UNL1        0.1395
     19 C          59.8354   88.8126    8.5920 C.ar    1  UNL1        0.0392
     20 C          59.5794   87.5595    7.8084 C.ar    1  UNL1        0.0334
     21 C          60.5246   86.3998    7.9183 C.ar    1  UNL1        0.1499
     22 F          60.2686   85.1466    7.1347 F       1  UNL1       -0.2035
     23 C          61.7256   86.4935    8.8120 C.ar    1  UNL1        0.0988
     24 C          61.9816   87.7466    9.5956 C.ar    1  UNL1        0.0494
     25 C          62.6708   85.3339    8.9220 C.1     1  UNL1        0.1028
     26 N          63.6160   84.1743    9.0320 N.1     1  UNL1       -0.1908
@<TRIPOS>BOND
     1     7     8    1
     2     8     9    1
     3     9    10    1
     4    10    11    1
     5    11    12    1
     6    11     1    1
     7     1     2    1
     8     2     3    1
     9     3     4    2
    10     3     5   am
    11     5    15    1
    12    15    16    1
    13    16    17    1
    14    17    18    1
    15    18    19   ar
    16    19    20   ar
    17    20    21   ar
    18    21    22    1
    19    21    23   ar
    20    23    25    1
    21    25    26    3
    22    23    24   ar
    23     5     6    1
    24    11    13    1
    25    13    14    1
    26    14     8    1
    27     6     1    1
    28    24    18   ar
@<TRIPOS>MOLECULE
*****
 26 28 0 0 0
SMALL
GASTEIGER

@<TRIPOS>ATOM
      1 C          63.6558   88.3379   15.7979 C.3     1  UNL1        0.0290
      2 C          63.2904   89.5013   16.6713 C.3     1  UNL1        0.0870
      3 C          63.7285   90.7571   15.9777 C.2     1  UNL1        0.2258
      4 O          63.5600   92.1548   16.4953 O.2     1  UNL1       -0.2749
      5 N          64.3646   90.3698   14.6757 N.am    1  UNL1       -0.2757
      6 C          64.3197   88.8746   14.5645 C.3     1  UNL1        0.0940
      7 C          63.9328   82.8291   14.2427 C.3     1  UNL1        0.0896
      8 N          63.7558   84.1832   14.8631 N.3     1  UNL1       -0.2715
      9 C          63.1426   84.3093   16.2262 C.3     1  UNL1        0.0721
     10 C          62.9657   85.6635   16.8467 C.3     1  UNL1        0.0174
     11 C          63.4019   86.8915   16.1041 C.3     1  UNL1        0.0047
     12 C          62.8769   87.5199   17.3609 C.3     1  UNL1        0.0002
     13 C          64.0151   86.7654   14.7410 C.3     1  UNL1        0.0174
     14 C          64.1920   85.4113   14.1205 C.3     1  UNL1        0.0721
     15 C          64.9439   91.3122   13.6627 C.3     1  UNL1        0.1406
     16 C          64.4106   91.3269   12.2607 C.3     1  UNL1        0.2268
     17 O          62.9392   91.1684   12.0164 O.3     1  UNL1       -0.4736
     18 C          62.4216   89.9421   11.3248 C.ar    1  UNL1        0.1395
     19 C          62.8215   88.5811   11.8123 C.ar    1  UNL1        0.0392
     20 C          62.3039   87.3548   11.1207 C.ar    1  UNL1        0.0334
     21 C          61.3863   87.4894    9.9417 C.ar    1  UNL1        0.1499
     22 F          60.8687   86.2631    9.2502 F       1  UNL1       -0.2035
     23 C          60.9864   88.8505    9.4544 C.ar    1  UNL1        0.0988
     24 C          61.5040   90.0768   10.1459 C.ar    1  UNL1        0.0494
     25 C          60.0688   88.9853    8.2754 C.1     1  UNL1        0.1028
     26 N          59.1513   89.1200    7.0965 N.1     1  UNL1       -0.1908
@<TRIPOS>BOND
     1     7     8    1
     2     8     9    1
     3     9    10    1
     4    10    11    1
     5    11    12    1
     6    11     1    1
     7     1     2    1
     8     2     3    1
     9     3     4    2
    10     3     5   am
    11     5    15    1
    12    15    16    1
    13    16    17    1
    14    17    18    1
    15    18    19   ar
    16    19    20   ar
    17    20    21   ar
    18    21    22    1
    19    21    23   ar
    20    23    25    1
    21    25    26    3
    22    23    24   ar
    23     5     6    1
    24    11    13    1
    25    13    14    1
    26    14     8    1
    27     6     1    1
    28    24    18   ar
