@<TRIPOS>MOLECULE
*****
 33 37 0 0 0
SMALL
GASTEIGER

@<TRIPOS>ATOM
      1 C          62.9489   86.3621   12.4631 C.2     1  UNL1        0.2528
      2 O          63.5760   87.2582   13.4896 O.2     1  UNL1       -0.2698
      3 N          62.0292   86.9372   11.4271 N.am    1  UNL1       -0.2722
      4 C          61.4020   86.0411   10.4006 C.3     1  UNL1        0.1257
      5 C          60.4822   86.6162    9.3645 C.3     1  UNL1        0.1637
      6 O          60.1897   88.0873    9.3550 O.3     1  UNL1       -0.3502
      7 C          60.8168   88.9834   10.3815 C.3     1  UNL1        0.1622
      8 C          61.7365   88.4084   11.4175 C.3     1  UNL1        0.1096
      9 C          64.0643   81.9791    9.9048 C.3     1  UNL1        0.0334
     10 C          63.7992   82.6995   11.1935 C.ar    1  UNL1        0.0059
     11 C          63.8267   81.9487   12.4917 C.ar    1  UNL1       -0.0004
     12 C          63.5617   82.6690   13.7805 C.ar    1  UNL1        0.0209
     13 C          63.2690   84.1402   13.7709 C.ar    1  UNL1        0.1094
     14 C          63.2415   84.8909   12.4727 C.ar    1  UNL1        0.1000
     15 C          63.5066   84.1706   11.1840 C.ar    1  UNL1        0.1420
     16 F          63.4790   84.9214    9.8856 F       1  UNL1       -0.2043
     17 N          63.0040   84.8605   15.0597 N.ar    1  UNL1       -0.1476
     18 N          61.6680   85.0177   15.7233 N.ar    1  UNL1       -0.1447
     19 C          61.8666   85.8045   16.9848 C.ar    1  UNL1        0.1446
     20 C          63.3255   86.1336   17.1009 C.ar    1  UNL1        0.1446
     21 N          64.0284   85.5502   15.9111 N.ar    1  UNL1       -0.1447
     22 C          62.3637   89.3045   12.4440 C.3     1  UNL1        0.0488
     23 C          63.3415   90.3603   12.0208 C.ar    1  UNL1       -0.0189
     24 C          63.2707   90.9372   10.6381 C.ar    1  UNL1       -0.0041
     25 C          64.2485   91.9930   10.2149 C.ar    1  UNL1        0.0013
     26 C          65.2972   92.4719   11.1745 C.ar    1  UNL1        0.0209
     27 C          65.3681   91.8949   12.5573 C.ar    1  UNL1        0.1026
     28 C          64.3902   90.8391   12.9805 C.ar    1  UNL1        0.0167
     29 N          66.4168   92.3738   13.5169 N.ar    1  UNL1       -0.1478
     30 N          67.8735   92.0180   13.4807 N.ar    1  UNL1       -0.1447
     31 C          68.5500   92.7169   14.6227 C.ar    1  UNL1        0.1446
     32 C          67.5113   93.5046   15.3647 C.ar    1  UNL1        0.1446
     33 N          66.1928   93.2926   14.6814 N.ar    1  UNL1       -0.1447
@<TRIPOS>BOND
     1     9    10    1
     2    10    11   ar
     3    11    12   ar
     4    12    13   ar
     5    13    17    1
     6    17    18   ar
     7    18    19   ar
     8    19    20   ar
     9    20    21   ar
    10    13    14   ar
    11    14     1    1
    12     1     2    2
    13     1     3   am
    14     3     4    1
    15     4     5    1
    16     5     6    1
    17     6     7    1
    18     7     8    1
    19     8    22    1
    20    22    23    1
    21    23    24   ar
    22    24    25   ar
    23    25    26   ar
    24    26    27   ar
    25    27    29    1
    26    29    30   ar
    27    30    31   ar
    28    31    32   ar
    29    32    33   ar
    30    27    28   ar
    31    14    15   ar
    32    15    16    1
    33    15    10   ar
    34    21    17   ar
    35     8     3    1
    36    28    23   ar
    37    33    29   ar
@<TRIPOS>MOLECULE
*****
 33 37 0 0 0
SMALL
GASTEIGER

@<TRIPOS>ATOM
      1 C          62.4640   87.9816   10.7922 C.2     1  UNL1        0.2528
      2 O          62.9592   89.3895   10.6418 O.2     1  UNL1       -0.2698
      3 N          62.8538   87.1739   11.9945 N.am    1  UNL1       -0.2722
      4 C          62.3587   85.7660   12.1449 C.3     1  UNL1        0.1257
      5 C          62.7485   84.9583   13.3473 C.3     1  UNL1        0.1637
      6 O          63.6335   85.5585   14.3992 O.3     1  UNL1       -0.3502
      7 C          64.1286   86.9664   14.2488 C.3     1  UNL1        0.1622
      8 C          63.7388   87.7741   13.0465 C.3     1  UNL1        0.1096
      9 C          61.7981   84.7435    6.7833 C.3     1  UNL1        0.0334
     10 C          61.2461   85.7624    7.7357 C.ar    1  UNL1        0.0059
     11 C          59.8092   86.1811    7.6362 C.ar    1  UNL1       -0.0004
     12 C          59.2572   87.2000    8.5887 C.ar    1  UNL1        0.0209
     13 C          60.1421   87.8002    9.6407 C.ar    1  UNL1        0.1094
     14 C          61.5790   87.3814    9.7402 C.ar    1  UNL1        0.1000
     15 C          62.1310   86.3626    8.7877 C.ar    1  UNL1        0.1420
     16 F          63.5680   85.9438    8.8872 F       1  UNL1       -0.2043
     17 N          59.5901   88.8190   10.5931 N.ar    1  UNL1       -0.1476
     18 N          59.5044   90.2969   10.3511 N.ar    1  UNL1       -0.1447
     19 C          58.8883   90.9302   11.5632 C.ar    1  UNL1        0.1446
     20 C          58.5932   89.8437   12.5544 C.ar    1  UNL1        0.1446
     21 N          59.0269   88.5390   11.9549 N.ar    1  UNL1       -0.1447
     22 C          64.2340   89.1820   12.8961 C.3     1  UNL1        0.0488
     23 C          64.4080   90.0493   14.1075 C.ar    1  UNL1       -0.0189
     24 C          63.3224   90.1218   15.1400 C.ar    1  UNL1       -0.0041
     25 C          63.4963   90.9892   16.3515 C.ar    1  UNL1        0.0013
     26 C          64.7559   91.7839   16.5303 C.ar    1  UNL1        0.0209
     27 C          65.8415   91.7112   15.4977 C.ar    1  UNL1        0.1026
     28 C          65.6675   90.8440   14.2863 C.ar    1  UNL1        0.0167
     29 N          67.1010   92.5059   15.6766 N.ar    1  UNL1       -0.1478
     30 N          68.3531   92.0333   16.3541 N.ar    1  UNL1       -0.1447
     31 C          69.3555   93.1480   16.3055 C.ar    1  UNL1        0.1446
     32 C          68.7231   94.3097   15.5981 C.ar    1  UNL1        0.1446
     33 N          67.3297   93.9129   15.2093 N.ar    1  UNL1       -0.1447
@<TRIPOS>BOND
     1     9    10    1
     2    10    11   ar
     3    11    12   ar
     4    12    13   ar
     5    13    17    1
     6    17    18   ar
     7    18    19   ar
     8    19    20   ar
     9    20    21   ar
    10    13    14   ar
    11    14     1    1
    12     1     2    2
    13     1     3   am
    14     3     4    1
    15     4     5    1
    16     5     6    1
    17     6     7    1
    18     7     8    1
    19     8    22    1
    20    22    23    1
    21    23    24   ar
    22    24    25   ar
    23    25    26   ar
    24    26    27   ar
    25    27    29    1
    26    29    30   ar
    27    30    31   ar
    28    31    32   ar
    29    32    33   ar
    30    27    28   ar
    31    14    15   ar
    32    15    16    1
    33    15    10   ar
    34    21    17   ar
    35     8     3    1
    36    28    23   ar
    37    33    29   ar
@<TRIPOS>MOLECULE
*****
 33 37 0 0 0
SMALL
GASTEIGER

@<TRIPOS>ATOM
      1 C          63.4324   87.9882   13.2273 C.2     1  UNL1        0.2528
      2 O          63.6680   89.0728   12.2183 O.2     1  UNL1       -0.2698
      3 N          63.3585   88.3251   14.6871 N.am    1  UNL1       -0.2722
      4 C          63.1229   87.2405   15.6961 C.3     1  UNL1        0.1257
      5 C          63.0491   87.5774   17.1560 C.3     1  UNL1        0.1637
      6 O          63.2109   88.9989   17.6067 O.3     1  UNL1       -0.3502
      7 C          63.4465   90.0835   16.5977 C.3     1  UNL1        0.1622
      8 C          63.5203   89.7466   15.1379 C.3     1  UNL1        0.1096
      9 C          64.6530   82.9577   13.6784 C.3     1  UNL1        0.0334
     10 C          63.8809   84.0515   13.0021 C.ar    1  UNL1        0.0059
     11 C          62.9471   83.7238   11.8749 C.ar    1  UNL1       -0.0004
     12 C          62.1750   84.8176   11.1985 C.ar    1  UNL1        0.0209
     13 C          62.3367   86.2390   11.6493 C.ar    1  UNL1        0.1094
     14 C          63.2706   86.5667   12.7765 C.ar    1  UNL1        0.1000
     15 C          64.0427   85.4729   13.4528 C.ar    1  UNL1        0.1420
     16 F          64.9766   85.8006   14.5801 F       1  UNL1       -0.2043
     17 N          61.5646   87.3328   10.9729 N.ar    1  UNL1       -0.1476
     18 N          61.8327   87.8848    9.6042 N.ar    1  UNL1       -0.1447
     19 C          60.8227   88.9599    9.3319 C.ar    1  UNL1        0.1446
     20 C          59.9303   89.0723   10.5323 C.ar    1  UNL1        0.1446
     21 N          60.3889   88.0667   11.5465 N.ar    1  UNL1       -0.1447
     22 C          63.7560   90.8312   14.1289 C.3     1  UNL1        0.0488
     23 C          65.1418   91.3601   13.9060 C.ar    1  UNL1       -0.0189
     24 C          66.2031   91.1433   14.9436 C.ar    1  UNL1       -0.0041
     25 C          67.5890   91.6722   14.7208 C.ar    1  UNL1        0.0013
     26 C          67.9136   92.4178   13.4603 C.ar    1  UNL1        0.0209
     27 C          66.8522   92.6345   12.4227 C.ar    1  UNL1        0.1026
     28 C          65.4664   92.1056   12.6456 C.ar    1  UNL1        0.0167
     29 N          67.1768   93.3800   11.1622 N.ar    1  UNL1       -0.1478
     30 N          67.8873   92.8210    9.9653 N.ar    1  UNL1       -0.1447
     31 C          67.9974   93.9110    8.9407 C.ar    1  UNL1        0.1446
     32 C          67.3550   95.1437    9.5044 C.ar    1  UNL1        0.1446
     33 N          66.8477   94.8156   10.8774 N.ar    1  UNL1       -0.1447
@<TRIPOS>BOND
     1     9    10    1
     2    10    11   ar
     3    11    12   ar
     4    12    13   ar
     5    13    17    1
     6    17    18   ar
     7    18    19   ar
     8    19    20   ar
     9    20    21   ar
    10    13    14   ar
    11    14     1    1
    12     1     2    2
    13     1     3   am
    14     3     4    1
    15     4     5    1
    16     5     6    1
    17     6     7    1
    18     7     8    1
    19     8    22    1
    20    22    23    1
    21    23    24   ar
    22    24    25   ar
    23    25    26   ar
    24    26    27   ar
    25    27    29    1
    26    29    30   ar
    27    30    31   ar
    28    31    32   ar
    29    32    33   ar
    30    27    28   ar
    31    14    15   ar
    32    15    16    1
    33    15    10   ar
    34    21    17   ar
    35     8     3    1
    36    28    23   ar
    37    33    29   ar
@<TRIPOS>MOLECULE
*****
 33 37 0 0 0
SMALL
GASTEIGER

@<TRIPOS>ATOM
      1 C          63.7848   86.5879   13.6370 C.2     1  UNL1        0.2528
      2 O          64.8094   86.9875   14.6571 O.2     1  UNL1       -0.2698
      3 N          63.2083   87.6168   12.7102 N.am    1  UNL1       -0.2722
      4 C          62.1838   87.2172   11.6900 C.3     1  UNL1        0.1257
      5 C          61.6072   88.2461   10.7632 C.3     1  UNL1        0.1637
      6 O          62.0552   89.6746   10.8565 O.3     1  UNL1       -0.3502
      7 C          63.0798   90.0742   11.8767 C.3     1  UNL1        0.1622
      8 C          63.6563   89.0453   12.8035 C.3     1  UNL1        0.1096
      9 C          63.1837   82.2321   10.8684 C.3     1  UNL1        0.0334
     10 C          63.0363   82.9815   12.1594 C.ar    1  UNL1        0.0059
     11 C          62.4409   82.3024   13.3570 C.ar    1  UNL1       -0.0004
     12 C          62.2936   83.0519   14.6480 C.ar    1  UNL1        0.0209
     13 C          62.7415   84.4803   14.7413 C.ar    1  UNL1        0.1094
     14 C          63.3368   85.1594   13.5437 C.ar    1  UNL1        0.1000
     15 C          63.4842   84.4100   12.2527 C.ar    1  UNL1        0.1420
     16 F          64.0796   85.0891   11.0550 F       1  UNL1       -0.2043
     17 N          62.5941   85.2298   16.0323 N.ar    1  UNL1       -0.1476
     18 N          63.6825   85.4863   17.0321 N.ar    1  UNL1       -0.1447
     19 C          63.0935   86.2693   18.1679 C.ar    1  UNL1        0.1446
     20 C          61.6411   86.4968   17.8700 C.ar    1  UNL1        0.1446
     21 N          61.3325   85.8543   16.5502 N.ar    1  UNL1       -0.1447
     22 C          64.6808   89.4449   13.8236 C.3     1  UNL1        0.0488
     23 C          65.2544   90.8308   13.8075 C.ar    1  UNL1       -0.0189
     24 C          65.4397   91.5808   15.0932 C.ar    1  UNL1       -0.0041
     25 C          66.0133   92.9667   15.0771 C.ar    1  UNL1        0.0013
     26 C          66.4016   93.6026   13.7753 C.ar    1  UNL1        0.0209
     27 C          66.2164   92.8526   12.4895 C.ar    1  UNL1        0.1026
     28 C          65.6428   91.4667   12.5056 C.ar    1  UNL1        0.0167
     29 N          66.6047   93.4885   11.1876 N.ar    1  UNL1       -0.1478
     30 N          67.6773   93.0066   10.2563 N.ar    1  UNL1       -0.1447
     31 C          67.7242   93.9382    9.0816 C.ar    1  UNL1        0.1446
     32 C          66.6805   94.9958    9.2869 C.ar    1  UNL1        0.1446
     33 N          65.9886   94.7179   10.5885 N.ar    1  UNL1       -0.1447
@<TRIPOS>BOND
     1     9    10    1
     2    10    11   ar
     3    11    12   ar
     4    12    13   ar
     5    13    17    1
     6    17    18   ar
     7    18    19   ar
     8    19    20   ar
     9    20    21   ar
    10    13    14   ar
    11    14     1    1
    12     1     2    2
    13     1     3   am
    14     3     4    1
    15     4     5    1
    16     5     6    1
    17     6     7    1
    18     7     8    1
    19     8    22    1
    20    22    23    1
    21    23    24   ar
    22    24    25   ar
    23    25    26   ar
    24    26    27   ar
    25    27    29    1
    26    29    30   ar
    27    30    31   ar
    28    31    32   ar
    29    32    33   ar
    30    27    28   ar
    31    14    15   ar
    32    15    16    1
    33    15    10   ar
    34    21    17   ar
    35     8     3    1
    36    28    23   ar
    37    33    29   ar
@<TRIPOS>MOLECULE
*****
 33 37 0 0 0
SMALL
GASTEIGER

@<TRIPOS>ATOM
      1 C          62.4088   87.9596   11.0636 C.2     1  UNL1        0.2528
      2 O          63.5079   88.6206   10.2857 O.2     1  UNL1       -0.2698
      3 N          61.1601   88.7223   11.3936 N.am    1  UNL1       -0.2722
      4 C          60.0610   88.0614   12.1715 C.3     1  UNL1        0.1257
      5 C          58.8122   88.8242   12.5015 C.3     1  UNL1        0.1637
      6 O          58.6626   90.2479   12.0536 O.3     1  UNL1       -0.3502
      7 C          59.7618   90.9089   11.2757 C.3     1  UNL1        0.1622
      8 C          61.0104   90.1461   10.9457 C.3     1  UNL1        0.1096
      9 C          64.1150   84.4899   14.5349 C.3     1  UNL1        0.0334
     10 C          63.4115   84.8010   13.2472 C.ar    1  UNL1        0.0059
     11 C          62.8577   83.6885   12.4073 C.ar    1  UNL1       -0.0004
     12 C          62.1543   83.9996   11.1195 C.ar    1  UNL1        0.0209
     13 C          62.0046   85.4232   10.6716 C.ar    1  UNL1        0.1094
     14 C          62.5584   86.5358   11.5115 C.ar    1  UNL1        0.1000
     15 C          63.2619   86.2247   12.7993 C.ar    1  UNL1        0.1420
     16 F          63.8157   87.3374   13.6391 F       1  UNL1       -0.2043
     17 N          61.3012   85.7343    9.3838 N.ar    1  UNL1       -0.1476
     18 N          59.9902   86.4501    9.2459 N.ar    1  UNL1       -0.1447
     19 C          59.6640   86.5425    7.7847 C.ar    1  UNL1        0.1446
     20 C          60.7733   85.8837    7.0196 C.ar    1  UNL1        0.1446
     21 N          61.7851   85.3843    8.0079 N.ar    1  UNL1       -0.1447
     22 C          62.1095   90.8071   10.1678 C.3     1  UNL1        0.0488
     23 C          63.2803   91.4087   10.8870 C.ar    1  UNL1       -0.0189
     24 C          63.5501   91.0443   12.3168 C.ar    1  UNL1       -0.0041
     25 C          64.7209   91.6459   13.0361 C.ar    1  UNL1        0.0013
     26 C          65.6219   92.6119   12.3254 C.ar    1  UNL1        0.0209
     27 C          65.3521   92.9763   10.8956 C.ar    1  UNL1        0.1026
     28 C          64.1813   92.3747   10.1764 C.ar    1  UNL1        0.0167
     29 N          66.2531   93.9424   10.1850 N.ar    1  UNL1       -0.1478
     30 N          67.3908   93.5819    9.2762 N.ar    1  UNL1       -0.1447
     31 C          68.0155   94.8552    8.7880 C.ar    1  UNL1        0.1446
     32 C          67.2639   96.0027    9.3949 C.ar    1  UNL1        0.1446
     33 N          66.1746   95.4386   10.2583 N.ar    1  UNL1       -0.1447
@<TRIPOS>BOND
     1     9    10    1
     2    10    11   ar
     3    11    12   ar
     4    12    13   ar
     5    13    17    1
     6    17    18   ar
     7    18    19   ar
     8    19    20   ar
     9    20    21   ar
    10    13    14   ar
    11    14     1    1
    12     1     2    2
    13     1     3   am
    14     3     4    1
    15     4     5    1
    16     5     6    1
    17     6     7    1
    18     7     8    1
    19     8    22    1
    20    22    23    1
    21    23    24   ar
    22    24    25   ar
    23    25    26   ar
    24    26    27   ar
    25    27    29    1
    26    29    30   ar
    27    30    31   ar
    28    31    32   ar
    29    32    33   ar
    30    27    28   ar
    31    14    15   ar
    32    15    16    1
    33    15    10   ar
    34    21    17   ar
    35     8     3    1
    36    28    23   ar
    37    33    29   ar
@<TRIPOS>MOLECULE
*****
 33 37 0 0 0
SMALL
GASTEIGER

@<TRIPOS>ATOM
      1 C          61.4401   93.6581   -1.5392 C.2     1  UNL1        0.2528
      2 O          61.6107   92.8376   -2.7833 O.2     1  UNL1       -0.2698
      3 N          60.3241   94.6560   -1.4461 N.am    1  UNL1       -0.2722
      4 C          60.1534   95.4765   -0.2021 C.3     1  UNL1        0.1257
      5 C          59.0374   96.4745   -0.1091 C.3     1  UNL1        0.1637
      6 O          58.0920   96.6519   -1.2600 O.3     1  UNL1       -0.3502
      7 C          58.2627   95.8314   -2.5041 C.3     1  UNL1        0.1622
      8 C          59.3787   94.8335   -2.5972 C.3     1  UNL1        0.1096
      9 C          62.5193   91.6468    3.1288 C.3     1  UNL1        0.0334
     10 C          62.9250   92.4750    1.9458 C.ar    1  UNL1        0.0059
     11 C          64.2762   93.1257    1.9138 C.ar    1  UNL1       -0.0004
     12 C          64.6819   93.9539    0.7308 C.ar    1  UNL1        0.0209
     13 C          63.7366   94.1313   -0.4202 C.ar    1  UNL1        0.1094
     14 C          62.3855   93.4807   -0.3882 C.ar    1  UNL1        0.1000
     15 C          61.9797   92.6525    0.7948 C.ar    1  UNL1        0.1420
     16 F          60.6285   92.0018    0.8268 F       1  UNL1       -0.2043
     17 N          64.1424   94.9595   -1.6032 N.ar    1  UNL1       -0.1476
     18 N          64.5035   96.4152   -1.5783 N.ar    1  UNL1       -0.1447
     19 C          64.8426   96.8327   -2.9785 C.ar    1  UNL1        0.1446
     20 C          64.6911   95.6351   -3.8689 C.ar    1  UNL1        0.1446
     21 N          64.2583   94.4774   -3.0189 N.ar    1  UNL1       -0.1447
     22 C          59.5493   94.0130   -3.8412 C.3     1  UNL1        0.0488
     23 C          58.3659   93.7212   -4.7154 C.ar    1  UNL1       -0.0189
     24 C          58.0273   94.6409   -5.8509 C.ar    1  UNL1       -0.0041
     25 C          56.8438   94.3491   -6.7252 C.ar    1  UNL1        0.0013
     26 C          55.9989   93.1375   -6.4638 C.ar    1  UNL1        0.0209
     27 C          56.3375   92.2178   -5.3282 C.ar    1  UNL1        0.1026
     28 C          57.5210   92.5096   -4.4540 C.ar    1  UNL1        0.0167
     29 N          55.4926   91.0063   -5.0668 N.ar    1  UNL1       -0.1478
     30 N          54.5688   90.3473   -6.0478 N.ar    1  UNL1       -0.1447
     31 C          53.9284   89.1747   -5.3659 C.ar    1  UNL1        0.1446
     32 C          54.4564   89.1091   -3.9634 C.ar    1  UNL1        0.1446
     33 N          55.4231   90.2410   -3.7785 N.ar    1  UNL1       -0.1447
@<TRIPOS>BOND
     1     9    10    1
     2    10    11   ar
     3    11    12   ar
     4    12    13   ar
     5    13    17    1
     6    17    18   ar
     7    18    19   ar
     8    19    20   ar
     9    20    21   ar
    10    13    14   ar
    11    14     1    1
    12     1     2    2
    13     1     3   am
    14     3     4    1
    15     4     5    1
    16     5     6    1
    17     6     7    1
    18     7     8    1
    19     8    22    1
    20    22    23    1
    21    23    24   ar
    22    24    25   ar
    23    25    26   ar
    24    26    27   ar
    25    27    29    1
    26    29    30   ar
    27    30    31   ar
    28    31    32   ar
    29    32    33   ar
    30    27    28   ar
    31    14    15   ar
    32    15    16    1
    33    15    10   ar
    34    21    17   ar
    35     8     3    1
    36    28    23   ar
    37    33    29   ar
@<TRIPOS>MOLECULE
*****
 33 37 0 0 0
SMALL
GASTEIGER

@<TRIPOS>ATOM
      1 C          62.4551   88.4815   11.3582 C.2     1  UNL1        0.2528
      2 O          62.4599   89.9814   11.3403 O.2     1  UNL1       -0.2698
      3 N          63.1401   87.7426   12.4694 N.am    1  UNL1       -0.2722
      4 C          63.1354   86.2427   12.4873 C.3     1  UNL1        0.1257
      5 C          63.8204   85.5038   13.5986 C.3     1  UNL1        0.1637
      6 O          64.5102   86.2647   14.6918 O.3     1  UNL1       -0.3502
      7 C          64.5150   87.7646   14.6738 C.3     1  UNL1        0.1622
      8 C          63.8300   88.5035   13.5627 C.3     1  UNL1        0.1096
      9 C          62.5931   84.9250    7.5724 C.3     1  UNL1        0.0334
     10 C          61.8343   85.9423    8.3721 C.ar    1  UNL1        0.0059
     11 C          60.3859   86.1987    8.0785 C.ar    1  UNL1       -0.0004
     12 C          59.6272   87.2160    8.8781 C.ar    1  UNL1        0.0209
     13 C          60.3169   87.9769    9.9714 C.ar    1  UNL1        0.1094
     14 C          61.7653   87.7205   10.2649 C.ar    1  UNL1        0.1000
     15 C          62.5241   86.7032    9.4653 C.ar    1  UNL1        0.1420
     16 F          63.9726   86.4469    9.7589 F       1  UNL1       -0.2043
     17 N          59.5582   88.9942   10.7710 N.ar    1  UNL1       -0.1476
     18 N          59.4730   90.4625   10.4762 N.ar    1  UNL1       -0.1447
     19 C          58.6136   91.0976   11.5288 C.ar    1  UNL1        0.1446
     20 C          58.1676   90.0218   12.4743 C.ar    1  UNL1        0.1446
     21 N          58.7514   88.7219   12.0059 N.ar    1  UNL1       -0.1447
     22 C          63.8347   90.0034   13.5447 C.3     1  UNL1        0.0488
     23 C          65.1361   90.7493   13.5426 C.ar    1  UNL1       -0.0189
     24 C          66.0355   90.6916   14.7416 C.ar    1  UNL1       -0.0041
     25 C          67.3369   91.4375   14.7395 C.ar    1  UNL1        0.0013
     26 C          67.7388   92.2412   13.5385 C.ar    1  UNL1        0.0209
     27 C          66.8393   92.2989   12.3394 C.ar    1  UNL1        0.1026
     28 C          65.5380   91.5530   12.3415 C.ar    1  UNL1        0.0167
     29 N          67.2412   93.1026   11.1384 N.ar    1  UNL1       -0.1478
     30 N          68.0173   92.5969    9.9585 N.ar    1  UNL1       -0.1447
     31 C          68.1933   93.7349    8.9972 C.ar    1  UNL1        0.1446
     32 C          67.5260   94.9439    9.5829 C.ar    1  UNL1        0.1446
     33 N          66.9376   94.5532   10.9062 N.ar    1  UNL1       -0.1447
@<TRIPOS>BOND
     1     9    10    1
     2    10    11   ar
     3    11    12   ar
     4    12    13   ar
     5    13    17    1
     6    17    18   ar
     7    18    19   ar
     8    19    20   ar
     9    20    21   ar
    10    13    14   ar
    11    14     1    1
    12     1     2    2
    13     1     3   am
    14     3     4    1
    15     4     5    1
    16     5     6    1
    17     6     7    1
    18     7     8    1
    19     8    22    1
    20    22    23    1
    21    23    24   ar
    22    24    25   ar
    23    25    26   ar
    24    26    27   ar
    25    27    29    1
    26    29    30   ar
    27    30    31   ar
    28    31    32   ar
    29    32    33   ar
    30    27    28   ar
    31    14    15   ar
    32    15    16    1
    33    15    10   ar
    34    21    17   ar
    35     8     3    1
    36    28    23   ar
    37    33    29   ar
