@<TRIPOS>MOLECULE
*****
 24 26 0 0 0
SMALL
GASTEIGER

@<TRIPOS>ATOM
      1 C          64.5116   90.5903   14.4912 C.ar    1  UNL1        0.0173
      2 C          63.8162   90.9046   15.7825 C.ar    1  UNL1        0.0012
      3 C          63.3008   89.7924   16.6469 C.ar    1  UNL1       -0.0045
      4 C          63.4808   88.3657   16.2199 C.ar    1  UNL1       -0.0247
      5 C          64.1761   88.0514   14.9285 C.ar    1  UNL1       -0.0246
      6 C          64.6915   89.1636   14.0642 C.ar    1  UNL1       -0.0030
      7 C          64.2067   86.5601   14.7696 C.3     1  UNL1        0.0438
      8 C          63.5303   85.9528   15.9628 C.3     1  UNL1        0.0838
      9 C          63.0816   87.0687   16.8592 C.3     1  UNL1        0.0437
     10 C          66.5733   95.0394   11.0336 C.3     1  UNL1        0.0327
     11 C          66.0579   93.9271   11.8980 C.ar    1  UNL1       -0.0027
     12 C          65.2112   92.8431   11.2996 C.ar    1  UNL1       -0.0012
     13 C          64.6958   91.7308   12.1641 C.ar    1  UNL1        0.0188
     14 C          65.0270   91.7026   13.6267 C.ar    1  UNL1        0.0813
     15 N          65.8737   92.7866   14.2251 N.ar    1  UNL1       -0.2442
     16 C          66.3891   93.8989   13.3607 C.ar    1  UNL1        0.0945
     17 N          63.3366   84.4869   16.2153 N.3     1  UNL1       -0.1841
     18 H          62.6410   84.4052   16.9569 H       1  UNL1        0.1484
     19 S          62.8901   83.5867   15.1017 S.O2    1  UNL1        0.0390
     20 O          64.1235   82.7522   15.2817 O.2     1  UNL1       -0.1576
     21 O          61.6567   84.4211   14.9217 O.2     1  UNL1       -0.1576
     22 C          62.4436   82.6864   13.9881 C.3     1  UNL1        0.1457
     23 C          62.7796   83.0284   12.5667 C.3     1  UNL1        0.0270
     24 C          61.6611   81.4442   14.2958 C.3     1  UNL1        0.0270
@<TRIPOS>BOND
     1    10    11    1
     2    11    12   ar
     3    12    13   ar
     4    13    14   ar
     5    14     1    1
     6     1     2   ar
     7     2     3   ar
     8     3     4   ar
     9     4     5   ar
    10     5     6   ar
    11     5     7    1
    12     7     8    1
    13     8    17    1
    14    17    19    1
    15    19    20    2
    16    19    21    2
    17    19    22    1
    18    22    23    1
    19    22    24    1
    20     8     9    1
    21    14    15   ar
    22    15    16   ar
    23    16    11   ar
    24     6     1   ar
    25     9     4    1
    26    17    18    1
@<TRIPOS>MOLECULE
*****
 24 26 0 0 0
SMALL
GASTEIGER

@<TRIPOS>ATOM
      1 C          62.7919   85.8496   12.3618 C.ar    1  UNL1        0.0173
      2 C          62.1427   86.4418   11.1463 C.ar    1  UNL1        0.0012
      3 C          62.2197   87.9194   10.8996 C.ar    1  UNL1       -0.0045
      4 C          62.9461   88.8046   11.8685 C.ar    1  UNL1       -0.0247
      5 C          63.5953   88.2124   13.0840 C.ar    1  UNL1       -0.0246
      6 C          63.5183   86.7348   13.3307 C.ar    1  UNL1       -0.0030
      7 C          64.2371   89.3268   13.8562 C.3     1  UNL1        0.0438
      8 C          63.9845   90.6078   13.1179 C.3     1  UNL1        0.0838
      9 C          63.1866   90.2852   11.8894 C.3     1  UNL1        0.0437
     10 C          62.4837   79.9393   13.3488 C.3     1  UNL1        0.0327
     11 C          62.5608   81.4168   13.1020 C.ar    1  UNL1       -0.0027
     12 C          62.8428   81.9331   11.7222 C.ar    1  UNL1       -0.0012
     13 C          62.9199   83.4107   11.4755 C.ar    1  UNL1        0.0188
     14 C          62.7149   84.3720   12.6086 C.ar    1  UNL1        0.0813
     15 N          62.4328   83.8557   13.9884 N.ar    1  UNL1       -0.2442
     16 C          62.3558   82.3782   14.2351 C.ar    1  UNL1        0.0945
     17 N          64.4483   91.9720   13.5349 N.3     1  UNL1       -0.1841
     18 H          63.7604   92.3266   14.1992 H       1  UNL1        0.1484
     19 S          65.7950   92.1438   14.1728 S.O2    1  UNL1        0.0390
     20 O          65.1404   92.2951   15.5139 O.2     1  UNL1       -0.1576
     21 O          66.4496   91.9925   12.8317 O.2     1  UNL1       -0.1576
     22 C          67.1417   92.3155   14.8107 C.3     1  UNL1        0.1457
     23 C          67.2456   92.8253   16.2177 C.3     1  UNL1        0.0270
     24 C          68.3844   91.9775   14.0418 C.3     1  UNL1        0.0270
@<TRIPOS>BOND
     1    10    11    1
     2    11    12   ar
     3    12    13   ar
     4    13    14   ar
     5    14     1    1
     6     1     2   ar
     7     2     3   ar
     8     3     4   ar
     9     4     5   ar
    10     5     6   ar
    11     5     7    1
    12     7     8    1
    13     8    17    1
    14    17    19    1
    15    19    20    2
    16    19    21    2
    17    19    22    1
    18    22    23    1
    19    22    24    1
    20     8     9    1
    21    14    15   ar
    22    15    16   ar
    23    16    11   ar
    24     6     1   ar
    25     9     4    1
    26    17    18    1
@<TRIPOS>MOLECULE
*****
 24 26 0 0 0
SMALL
GASTEIGER

@<TRIPOS>ATOM
      1 C          63.7073   84.7125   13.0606 C.ar    1  UNL1        0.0173
      2 C          64.3158   84.7768   14.4301 C.ar    1  UNL1        0.0012
      3 C          64.5389   86.1051   15.0900 C.ar    1  UNL1       -0.0045
      4 C          64.1534   87.3692   14.3805 C.ar    1  UNL1       -0.0247
      5 C          63.5448   87.3050   13.0111 C.ar    1  UNL1       -0.0246
      6 C          63.3218   85.9766   12.3511 C.ar    1  UNL1       -0.0030
      7 C          63.2676   88.7086   12.5607 C.3     1  UNL1        0.0438
      8 C          63.7048   89.6405   13.6519 C.3     1  UNL1        0.0838
      9 C          64.2522   88.8127   14.7766 C.3     1  UNL1        0.0437
     10 C          62.8151   79.3989   10.4206 C.3     1  UNL1        0.0327
     11 C          63.0381   80.7272   11.0805 C.ar    1  UNL1       -0.0027
     12 C          63.6931   81.8420   10.3200 C.ar    1  UNL1       -0.0012
     13 C          63.9162   83.1704   10.9801 C.ar    1  UNL1        0.0188
     14 C          63.4843   83.3840   12.4006 C.ar    1  UNL1        0.0813
     15 N          62.8293   82.2693   13.1610 N.ar    1  UNL1       -0.2442
     16 C          62.6062   80.9409   12.5011 C.ar    1  UNL1        0.0945
     17 N          63.6109   91.1373   13.6233 N.3     1  UNL1       -0.1841
     18 H          63.3236   91.4322   14.5565 H       1  UNL1        0.1484
     19 S          64.8136   91.9573   13.2612 S.O2    1  UNL1        0.0390
     20 O          65.0938   92.1890   14.7164 O.2     1  UNL1       -0.1576
     21 O          64.5334   91.7257   11.8059 O.2     1  UNL1       -0.1576
     22 C          66.0163   92.7774   12.8990 C.3     1  UNL1        0.1457
     23 C          66.6571   93.6630   13.9262 C.3     1  UNL1        0.0270
     24 C          66.5781   92.7118   11.5098 C.3     1  UNL1        0.0270
@<TRIPOS>BOND
     1    10    11    1
     2    11    12   ar
     3    12    13   ar
     4    13    14   ar
     5    14     1    1
     6     1     2   ar
     7     2     3   ar
     8     3     4   ar
     9     4     5   ar
    10     5     6   ar
    11     5     7    1
    12     7     8    1
    13     8    17    1
    14    17    19    1
    15    19    20    2
    16    19    21    2
    17    19    22    1
    18    22    23    1
    19    22    24    1
    20     8     9    1
    21    14    15   ar
    22    15    16   ar
    23    16    11   ar
    24     6     1   ar
    25     9     4    1
    26    17    18    1
@<TRIPOS>MOLECULE
*****
 24 26 0 0 0
SMALL
GASTEIGER

@<TRIPOS>ATOM
      1 C          62.5755   85.3953   11.9222 C.ar    1  UNL1        0.0173
      2 C          61.9071   85.8100   10.6451 C.ar    1  UNL1        0.0012
      3 C          61.8604   87.2587   10.2591 C.ar    1  UNL1       -0.0045
      4 C          62.4821   88.2928   11.1503 C.ar    1  UNL1       -0.0247
      5 C          63.1506   87.8781   12.4274 C.ar    1  UNL1       -0.0246
      6 C          63.1973   86.4294   12.8134 C.ar    1  UNL1       -0.0030
      7 C          63.6729   89.1132   13.0995 C.3     1  UNL1        0.0438
      8 C          63.3273   90.2913   12.2376 C.3     1  UNL1        0.0838
      9 C          62.5913   89.7842   11.0329 C.3     1  UNL1        0.0437
     10 C          62.7623   79.6004   13.4662 C.3     1  UNL1        0.0327
     11 C          62.7156   81.0491   13.0803 C.ar    1  UNL1       -0.0027
     12 C          62.3930   82.0899   14.1111 C.ar    1  UNL1       -0.0012
     13 C          62.3463   83.5387   13.7251 C.ar    1  UNL1        0.0188
     14 C          62.6222   83.9466   12.3083 C.ar    1  UNL1        0.0813
     15 N          62.9448   82.9058   11.2774 N.ar    1  UNL1       -0.2442
     16 C          62.9915   81.4571   11.6634 C.ar    1  UNL1        0.0945
     17 N          63.6593   91.7247   12.5293 N.3     1  UNL1       -0.1841
     18 H          63.3696   91.9043   13.4907 H       1  UNL1        0.1484
     19 S          65.0744   92.2068   12.4063 S.O2    1  UNL1        0.0390
     20 O          64.9405   92.2187   10.9123 O.2     1  UNL1       -0.1576
     21 O          65.2083   92.1949   13.9003 O.2     1  UNL1       -0.1576
     22 C          66.4895   92.6888   12.2833 C.3     1  UNL1        0.1457
     23 C          66.8834   93.5740   11.1381 C.3     1  UNL1        0.0270
     24 C          67.5107   92.2858   13.3053 C.3     1  UNL1        0.0270
@<TRIPOS>BOND
     1    10    11    1
     2    11    12   ar
     3    12    13   ar
     4    13    14   ar
     5    14     1    1
     6     1     2   ar
     7     2     3   ar
     8     3     4   ar
     9     4     5   ar
    10     5     6   ar
    11     5     7    1
    12     7     8    1
    13     8    17    1
    14    17    19    1
    15    19    20    2
    16    19    21    2
    17    19    22    1
    18    22    23    1
    19    22    24    1
    20     8     9    1
    21    14    15   ar
    22    15    16   ar
    23    16    11   ar
    24     6     1   ar
    25     9     4    1
    26    17    18    1
@<TRIPOS>MOLECULE
*****
 24 26 0 0 0
SMALL
GASTEIGER

@<TRIPOS>ATOM
      1 C          65.4853   91.8494   12.7862 C.ar    1  UNL1        0.0173
      2 C          65.4300   92.4704   11.4219 C.ar    1  UNL1        0.0012
      3 C          64.3450   92.0788   10.4631 C.ar    1  UNL1       -0.0045
      4 C          63.3153   91.0662   10.8685 C.ar    1  UNL1       -0.0247
      5 C          63.3706   90.4453   12.2328 C.ar    1  UNL1       -0.0246
      6 C          64.4555   90.8369   13.1916 C.ar    1  UNL1       -0.0030
      7 C          62.2265   89.4824   12.3505 C.3     1  UNL1        0.0438
      8 C          61.4641   89.5082   11.0589 C.3     1  UNL1        0.0838
      9 C          62.1370   90.4871   10.1430 C.3     1  UNL1        0.0437
     10 C          69.8253   93.4157   16.6217 C.3     1  UNL1        0.0327
     11 C          68.7403   93.0242   15.6629 C.ar    1  UNL1       -0.0027
     12 C          67.3017   93.1323   16.0734 C.ar    1  UNL1       -0.0012
     13 C          66.2166   92.7407   15.1145 C.ar    1  UNL1        0.0188
     14 C          66.5703   92.2410   13.7451 C.ar    1  UNL1        0.0813
     15 N          68.0090   92.1329   13.3346 N.ar    1  UNL1       -0.2442
     16 C          69.0940   92.5245   14.2934 C.ar    1  UNL1        0.0945
     17 N          60.2431   88.6975   10.7394 N.3     1  UNL1       -0.1841
     18 H          59.4964   89.3599   10.5297 H       1  UNL1        0.1484
     19 S          60.2736   87.7082    9.6123 S.O2    1  UNL1        0.0390
     20 O          60.8143   86.6639   10.5435 O.2     1  UNL1       -0.1576
     21 O          59.7328   88.7524    8.6811 O.2     1  UNL1       -0.1576
     22 C          60.3040   86.7189    8.4852 C.3     1  UNL1        0.1457
     23 C          61.5412   85.9096    8.2308 C.3     1  UNL1        0.0270
     24 C          59.0974   86.5388    7.6126 C.3     1  UNL1        0.0270
@<TRIPOS>BOND
     1    10    11    1
     2    11    12   ar
     3    12    13   ar
     4    13    14   ar
     5    14     1    1
     6     1     2   ar
     7     2     3   ar
     8     3     4   ar
     9     4     5   ar
    10     5     6   ar
    11     5     7    1
    12     7     8    1
    13     8    17    1
    14    17    19    1
    15    19    20    2
    16    19    21    2
    17    19    22    1
    18    22    23    1
    19    22    24    1
    20     8     9    1
    21    14    15   ar
    22    15    16   ar
    23    16    11   ar
    24     6     1   ar
    25     9     4    1
    26    17    18    1
@<TRIPOS>MOLECULE
*****
 24 26 0 0 0
SMALL
GASTEIGER

@<TRIPOS>ATOM
      1 C          62.7374   88.7757   11.5723 C.ar    1  UNL1        0.0173
      2 C          63.2104   87.9492   12.7313 C.ar    1  UNL1        0.0012
      3 C          64.0866   88.5635   13.7824 C.ar    1  UNL1       -0.0045
      4 C          64.4899   90.0042   13.6745 C.ar    1  UNL1       -0.0247
      5 C          64.0170   90.8307   12.5156 C.ar    1  UNL1       -0.0246
      6 C          63.1407   90.2164   11.4645 C.ar    1  UNL1       -0.0030
      7 C          64.5734   92.2144   12.6754 C.3     1  UNL1        0.0438
      8 C          65.3903   92.2432   13.9331 C.3     1  UNL1        0.0838
      9 C          65.3387   90.8772   14.5507 C.3     1  UNL1        0.0437
     10 C          59.2323   86.3189    7.3677 C.3     1  UNL1        0.0327
     11 C          60.1086   86.9330    8.4188 C.ar    1  UNL1       -0.0027
     12 C          61.1181   86.0900    9.1401 C.ar    1  UNL1       -0.0012
     13 C          61.9944   86.7043   10.1913 C.ar    1  UNL1        0.0188
     14 C          61.8611   88.1614   10.5211 C.ar    1  UNL1        0.0813
     15 N          60.8516   89.0045    9.7998 N.ar    1  UNL1       -0.2442
     16 C          59.9754   88.3903    8.7487 C.ar    1  UNL1        0.0945
     17 N          66.1290   93.4297   14.4777 N.3     1  UNL1       -0.1841
     18 H          65.4931   93.9035   15.1192 H       1  UNL1        0.1484
     19 S          67.4213   93.2352   15.2141 S.O2    1  UNL1        0.0390
     20 O          66.7100   93.4455   16.5179 O.2     1  UNL1       -0.1576
     21 O          68.1326   93.0250   13.9103 O.2     1  UNL1       -0.1576
     22 C          68.7136   93.0408   15.9505 C.3     1  UNL1        0.1457
     23 C          69.6929   94.1720   16.0583 C.3     1  UNL1        0.0270
     24 C          69.0266   91.7153   16.5789 C.3     1  UNL1        0.0270
@<TRIPOS>BOND
     1    10    11    1
     2    11    12   ar
     3    12    13   ar
     4    13    14   ar
     5    14     1    1
     6     1     2   ar
     7     2     3   ar
     8     3     4   ar
     9     4     5   ar
    10     5     6   ar
    11     5     7    1
    12     7     8    1
    13     8    17    1
    14    17    19    1
    15    19    20    2
    16    19    21    2
    17    19    22    1
    18    22    23    1
    19    22    24    1
    20     8     9    1
    21    14    15   ar
    22    15    16   ar
    23    16    11   ar
    24     6     1   ar
    25     9     4    1
    26    17    18    1
@<TRIPOS>MOLECULE
*****
 24 26 0 0 0
SMALL
GASTEIGER

@<TRIPOS>ATOM
      1 C          65.0373   91.2498   13.1820 C.ar    1  UNL1        0.0173
      2 C          64.3188   91.8932   12.0332 C.ar    1  UNL1        0.0012
      3 C          63.3177   91.1070   11.2397 C.ar    1  UNL1       -0.0045
      4 C          63.0351   89.6774   11.5950 C.ar    1  UNL1       -0.0247
      5 C          63.7536   89.0339   12.7438 C.ar    1  UNL1       -0.0246
      6 C          64.7547   89.8201   13.5372 C.ar    1  UNL1       -0.0030
      7 C          63.2708   87.6184   12.8581 C.3     1  UNL1        0.0438
      8 C          62.2539   87.3869   11.7800 C.3     1  UNL1        0.0838
      9 C          62.1082   88.6595   10.9993 C.3     1  UNL1        0.0437
     10 C          69.0417   94.3946   16.3561 C.3     1  UNL1        0.0327
     11 C          68.0406   93.6084   15.5626 C.ar    1  UNL1       -0.0027
     12 C          67.9119   92.1289   15.7732 C.ar    1  UNL1       -0.0012
     13 C          66.9108   91.3427   14.9796 C.ar    1  UNL1        0.0188
     14 C          66.0384   92.0360   13.9755 C.ar    1  UNL1        0.0813
     15 N          66.1671   93.5156   13.7649 N.ar    1  UNL1       -0.2442
     16 C          67.1682   94.3018   14.5584 C.ar    1  UNL1        0.0945
     17 N          61.5127   86.1075   11.5270 N.3     1  UNL1       -0.1841
     18 H          61.0172   86.2242   10.6431 H       1  UNL1        0.1484
     19 S          62.2628   84.8118   11.4351 S.O2    1  UNL1        0.0390
     20 O          62.4589   85.0296    9.9640 O.2     1  UNL1       -0.1576
     21 O          62.0668   84.5941   12.9062 O.2     1  UNL1       -0.1576
     22 C          63.0130   83.5161   11.3433 C.3     1  UNL1        0.1457
     23 C          64.0014   83.2986   10.2361 C.3     1  UNL1        0.0270
     24 C          62.7747   82.4380   12.3586 C.3     1  UNL1        0.0270
@<TRIPOS>BOND
     1    10    11    1
     2    11    12   ar
     3    12    13   ar
     4    13    14   ar
     5    14     1    1
     6     1     2   ar
     7     2     3   ar
     8     3     4   ar
     9     4     5   ar
    10     5     6   ar
    11     5     7    1
    12     7     8    1
    13     8    17    1
    14    17    19    1
    15    19    20    2
    16    19    21    2
    17    19    22    1
    18    22    23    1
    19    22    24    1
    20     8     9    1
    21    14    15   ar
    22    15    16   ar
    23    16    11   ar
    24     6     1   ar
    25     9     4    1
    26    17    18    1
@<TRIPOS>MOLECULE
*****
 24 26 0 0 0
SMALL
GASTEIGER

@<TRIPOS>ATOM
      1 C          61.9518   86.1283   10.8677 C.ar    1  UNL1        0.0173
      2 C          62.3411   87.5030   11.3243 C.ar    1  UNL1        0.0012
      3 C          61.8032   88.7096   10.6139 C.ar    1  UNL1       -0.0045
      4 C          60.8759   88.5415    9.4469 C.ar    1  UNL1       -0.0247
      5 C          60.4866   87.1668    8.9903 C.ar    1  UNL1       -0.0246
      6 C          61.0245   85.9602    9.7007 C.ar    1  UNL1       -0.0030
      7 C          59.5617   87.3123    7.8183 C.3     1  UNL1        0.0438
      8 C          59.3795   88.7769    7.5506 C.3     1  UNL1        0.0838
      9 C          60.1917   89.5366    8.5572 C.3     1  UNL1        0.0437
     10 C          64.1034   81.3016   13.7093 C.3     1  UNL1        0.0327
     11 C          63.5655   82.5082   12.9989 C.ar    1  UNL1       -0.0027
     12 C          63.6579   82.6021   11.5047 C.ar    1  UNL1       -0.0012
     13 C          63.1200   83.8088   10.7943 C.ar    1  UNL1        0.0188
     14 C          62.4897   84.9216   11.5781 C.ar    1  UNL1        0.0813
     15 N          62.3973   84.8277   13.0723 N.ar    1  UNL1       -0.2442
     16 C          62.9352   83.6211   13.7827 C.ar    1  UNL1        0.0945
     17 N          58.5335   89.3765    6.4667 N.3     1  UNL1       -0.1841
     18 H          57.6905   89.7348    6.9154 H       1  UNL1        0.1484
     19 S          59.0780   90.4872    5.6183 S.O2    1  UNL1        0.0390
     20 O          57.7252   91.1349    5.5979 O.2     1  UNL1       -0.1576
     21 O          60.4308   89.8395    5.6386 O.2     1  UNL1       -0.1576
     22 C          59.6225   91.5979    4.7698 C.3     1  UNL1        0.1457
     23 C          61.0222   91.5171    4.2364 C.3     1  UNL1        0.0270
     24 C          58.7675   92.7893    4.4548 C.3     1  UNL1        0.0270
@<TRIPOS>BOND
     1    10    11    1
     2    11    12   ar
     3    12    13   ar
     4    13    14   ar
     5    14     1    1
     6     1     2   ar
     7     2     3   ar
     8     3     4   ar
     9     4     5   ar
    10     5     6   ar
    11     5     7    1
    12     7     8    1
    13     8    17    1
    14    17    19    1
    15    19    20    2
    16    19    21    2
    17    19    22    1
    18    22    23    1
    19    22    24    1
    20     8     9    1
    21    14    15   ar
    22    15    16   ar
    23    16    11   ar
    24     6     1   ar
    25     9     4    1
    26    17    18    1
@<TRIPOS>MOLECULE
*****
 24 26 0 0 0
SMALL
GASTEIGER

@<TRIPOS>ATOM
      1 C          62.5694   86.7462   10.5408 C.ar    1  UNL1        0.0173
      2 C          62.8723   85.8980   11.7403 C.ar    1  UNL1        0.0012
      3 C          63.3066   86.5418   13.0236 C.ar    1  UNL1       -0.0045
      4 C          63.4380   88.0336   13.1074 C.ar    1  UNL1       -0.0247
      5 C          63.1351   88.8818   11.9079 C.ar    1  UNL1       -0.0246
      6 C          62.7008   88.2381   10.6246 C.ar    1  UNL1       -0.0030
      7 C          63.3521   90.3165   12.2880 C.3     1  UNL1        0.0438
      8 C          63.7891   90.3551   13.7224 C.3     1  UNL1        0.0838
      9 C          63.8422   88.9442   14.2289 C.3     1  UNL1        0.0437
     10 C          60.8322   84.1714    5.4073 C.3     1  UNL1        0.0327
     11 C          61.2665   84.8151    6.6906 C.ar    1  UNL1       -0.0027
     12 C          62.6796   84.6569    7.1683 C.ar    1  UNL1       -0.0012
     13 C          63.1139   85.3007    8.4517 C.ar    1  UNL1        0.0188
     14 C          62.1351   86.1025    9.2573 C.ar    1  UNL1        0.0813
     15 N          60.7220   86.2606    8.7797 N.ar    1  UNL1       -0.2442
     16 C          60.2877   85.6169    7.4963 C.ar    1  UNL1        0.0945
     17 N          64.1157   91.5881   14.5117 N.3     1  UNL1       -0.1841
     18 H          63.6632   91.4848   15.4200 H       1  UNL1        0.1484
     19 S          65.5466   91.9501   14.7795 S.O2    1  UNL1        0.0390
     20 O          65.1715   92.4146   16.1556 O.2     1  UNL1       -0.1576
     21 O          65.9216   91.4856   13.4034 O.2     1  UNL1       -0.1576
     22 C          66.9774   92.3121   15.0473 C.3     1  UNL1        0.1457
     23 C          68.0232   92.0592   14.0021 C.3     1  UNL1        0.0270
     24 C          67.3624   92.9269   16.3602 C.3     1  UNL1        0.0270
@<TRIPOS>BOND
     1    10    11    1
     2    11    12   ar
     3    12    13   ar
     4    13    14   ar
     5    14     1    1
     6     1     2   ar
     7     2     3   ar
     8     3     4   ar
     9     4     5   ar
    10     5     6   ar
    11     5     7    1
    12     7     8    1
    13     8    17    1
    14    17    19    1
    15    19    20    2
    16    19    21    2
    17    19    22    1
    18    22    23    1
    19    22    24    1
    20     8     9    1
    21    14    15   ar
    22    15    16   ar
    23    16    11   ar
    24     6     1   ar
    25     9     4    1
    26    17    18    1
