@<TRIPOS>MOLECULE
*****
 45 49 0 0 0
SMALL
GASTEIGER

@<TRIPOS>ATOM
      1 C          62.7560   89.7513   12.3284 C.ar    1  UNL1        0.1134
      2 C          63.1251   88.5959   11.4459 C.ar    1  UNL1        0.1148
      3 N          61.8664   87.8582   11.0975 N.ar    1  UNL1       -0.2252
      4 N          60.7194   88.5577   11.7646 N.ar    1  UNL1       -0.0637
      5 N          61.2692   89.7277   12.5254 N.ar    1  UNL1       -0.1318
      6 C          63.7486   91.4782   11.5985 C.3     1  UNL1        0.0220
      7 C          63.7069   90.7542   12.9116 C.3     1  UNL1        0.0813
      8 C          63.6652   90.0302   14.2246 C.3     1  UNL1        0.0187
      9 C          63.1778   90.5933   15.5267 C.3     1  UNL1        0.0017
     10 C          63.3149   89.5271   16.5730 C.3     1  UNL1        0.0001
     11 C          63.8870   88.3052   15.9175 C.3     1  UNL1        0.0001
     12 C          64.1035   88.6162   14.4661 C.3     1  UNL1        0.0017
     13 N          64.6577   91.7571   13.4947 N.3     1  UNL1       -0.2914
     14 H          64.6552   91.6127   14.5045 H       1  UNL1        0.1238
     15 C          66.0940   91.7685   13.0624 C.3     1  UNL1        0.0959
     16 C          66.5350   92.6723   11.9494 C.ar    1  UNL1       -0.0058
     17 C          67.3289   92.1186   10.8036 C.ar    1  UNL1       -0.0013
     18 C          67.7700   93.0225    9.6906 C.ar    1  UNL1        0.0193
     19 C          67.4170   94.4799    9.7236 C.ar    1  UNL1        0.0879
     20 N          67.7107   95.6054    8.7765 N.ar    1  UNL1       -0.2363
     21 C          67.0983   96.8547    9.3370 C.ar    1  UNL1        0.1345
     22 S          66.4261   96.5013   10.6306 S.2     1  UNL1       -0.0645
     23 C          66.6231   95.0336   10.8695 C.ar    1  UNL1        0.0483
     24 C          66.1821   94.1298   11.9824 C.ar    1  UNL1        0.0051
     25 C          61.7713   86.6356   10.2335 C.3     1  UNL1        0.1693
     26 C          62.3167   85.3269   10.7233 C.2     1  UNL1        0.2166
     27 O          62.0184   84.8653   12.1190 O.2     1  UNL1       -0.2901
     28 C          63.1604   84.4798    9.8173 C.3     1  UNL1        0.2712
     29 O          64.2162   83.5848   10.3956 O.3     1  UNL1       -0.4627
     30 C          63.9049   82.7322   11.5898 C.ar    1  UNL1        0.1981
     31 C          63.2483   81.3960   11.4068 C.ar    1  UNL1        0.2034
     32 F          62.9030   80.9124   10.0294 F       1  UNL1       -0.1985
     33 C          62.9369   80.5435   12.6009 C.ar    1  UNL1        0.1728
     34 F          62.2803   79.2072   12.4178 F       1  UNL1       -0.2016
     35 C          63.2822   81.0270   13.9782 C.ar    1  UNL1        0.0641
     36 C          63.9388   82.3632   14.1613 C.ar    1  UNL1        0.1728
     37 F          64.2841   82.8467   15.5386 F       1  UNL1       -0.2016
     38 C          64.2501   83.2158   12.9671 C.ar    1  UNL1        0.2034
     39 F          64.9067   84.5520   13.1501 F       1  UNL1       -0.1985
     40 C          61.1309   86.7218    8.8799 C.3     1  UNL1        0.0574
     41 C          59.7520   87.2949    8.7376 C.3     1  UNL1        0.1533
     42 S          59.4816   88.3517    7.7081 S.O2    1  UNL1       -0.0082
     43 C          59.2112   89.4086    6.6786 C.3     1  UNL1        0.1760
     44 O          60.0488   89.3924    8.6274 O.2     1  UNL1       -0.1729
     45 O          58.9144   87.3110    6.7887 O.2     1  UNL1       -0.1729
@<TRIPOS>BOND
     1     7     6    1
     2     7    13    1
     3    13    15    1
     4    15    16    1
     5    16    17   ar
     6    17    18   ar
     7    18    19   ar
     8    19    20   ar
     9    20    21   ar
    10    21    22   ar
    11    22    23   ar
    12    23    24   ar
    13     7     1    1
    14     1     2   ar
    15     2     3   ar
    16     3    25    1
    17    25    40    1
    18    40    41    1
    19    41    42    1
    20    42    43    1
    21    42    44    2
    22    42    45    2
    23    25    26    1
    24    26    27    2
    25    26    28    1
    26    28    29    1
    27    29    30    1
    28    30    31   ar
    29    31    32    1
    30    31    33   ar
    31    33    34    1
    32    33    35   ar
    33    35    36   ar
    34    36    37    1
    35    36    38   ar
    36    38    39    1
    37     3     4   ar
    38     4     5   ar
    39     7     8    1
    40     8     9    1
    41     9    10    1
    42    10    11    1
    43    11    12    1
    44    24    16   ar
    45     5     1   ar
    46    12     8    1
    47    23    19   ar
    48    38    30   ar
    49    13    14    1
@<TRIPOS>MOLECULE
*****
 45 49 0 0 0
SMALL
GASTEIGER

@<TRIPOS>ATOM
      1 C          62.5267   89.4155   11.6722 C.ar    1  UNL1        0.1134
      2 C          62.7822   88.5872   10.4481 C.ar    1  UNL1        0.1148
      3 N          61.7376   87.5125   10.3892 N.ar    1  UNL1       -0.2252
      4 N          60.8364   87.6765   11.5770 N.ar    1  UNL1       -0.0637
      5 N          61.3241   88.8527   12.3700 N.ar    1  UNL1       -0.1318
      6 C          63.1268   91.2451   10.7821 C.3     1  UNL1        0.0220
      7 C          63.3324   90.5989   12.1200 C.3     1  UNL1        0.0813
      8 C          63.5379   89.9527   13.4580 C.3     1  UNL1        0.0187
      9 C          63.1426   90.5288   14.7853 C.3     1  UNL1        0.0017
     10 C          63.5352   89.5490   15.8512 C.3     1  UNL1        0.0001
     11 C          64.1731   88.3675   15.1826 C.3     1  UNL1        0.0001
     12 C          64.1748   88.6170   13.7035 C.3     1  UNL1        0.0017
     13 N          64.1380   91.7823   12.5678 N.3     1  UNL1       -0.2914
     14 H          63.9868   91.8785   13.5720 H       1  UNL1        0.1238
     15 C          65.6218   91.8055   12.3492 C.3     1  UNL1        0.0959
     16 C          66.2126   92.7116   11.3099 C.ar    1  UNL1       -0.0058
     17 C          67.2808   92.2007   10.3892 C.ar    1  UNL1       -0.0013
     18 C          67.8716   93.1067    9.3499 C.ar    1  UNL1        0.0193
     19 C          67.3941   94.5237    9.2314 C.ar    1  UNL1        0.0879
     20 N          67.7865   95.6414    8.3112 N.ar    1  UNL1       -0.2363
     21 C          66.9607   96.8431    8.6632 C.ar    1  UNL1        0.1345
     22 S          66.0580   96.4681    9.8010 S.2     1  UNL1       -0.0645
     23 C          66.3259   95.0347   10.1522 C.ar    1  UNL1        0.0483
     24 C          65.7351   94.1286   11.1914 C.ar    1  UNL1        0.0051
     25 C          61.6155   86.4586    9.3288 C.3     1  UNL1        0.1693
     26 C          62.7577   85.5221    9.0671 C.2     1  UNL1        0.2166
     27 O          63.8404   85.9103    8.1042 O.2     1  UNL1       -0.2901
     28 C          62.8171   84.1974    9.7683 C.3     1  UNL1        0.2712
     29 O          63.6647   84.0357   10.9954 O.3     1  UNL1       -0.4627
     30 C          63.1433   83.2629   12.1704 C.ar    1  UNL1        0.1981
     31 C          62.9520   83.9457   13.4922 C.ar    1  UNL1        0.2034
     32 F          63.2822   85.4016   13.6389 F       1  UNL1       -0.1985
     33 C          62.4307   83.1729   14.6672 C.ar    1  UNL1        0.1728
     34 F          62.2395   83.8559   15.9890 F       1  UNL1       -0.2016
     35 C          62.1006   81.7170   14.5205 C.ar    1  UNL1        0.0641
     36 C          62.2918   81.0341   13.1988 C.ar    1  UNL1        0.1728
     37 F          61.9617   79.5782   13.0522 F       1  UNL1       -0.2016
     38 C          62.8132   81.8070   12.0237 C.ar    1  UNL1        0.2034
     39 F          63.0045   81.1241   10.7020 F       1  UNL1       -0.1985
     40 C          60.3514   86.3413    8.5299 C.3     1  UNL1        0.0574
     41 C          59.3278   87.4366    8.5807 C.3     1  UNL1        0.1533
     42 S          59.3365   88.5200    7.5433 S.O2    1  UNL1       -0.0082
     43 C          59.3453   89.6034    6.5059 C.3     1  UNL1        0.1760
     44 O          58.7264   87.5749    6.5511 O.2     1  UNL1       -0.1729
     45 O          59.9467   89.4651    8.5355 O.2     1  UNL1       -0.1729
@<TRIPOS>BOND
     1     7     6    1
     2     7    13    1
     3    13    15    1
     4    15    16    1
     5    16    17   ar
     6    17    18   ar
     7    18    19   ar
     8    19    20   ar
     9    20    21   ar
    10    21    22   ar
    11    22    23   ar
    12    23    24   ar
    13     7     1    1
    14     1     2   ar
    15     2     3   ar
    16     3    25    1
    17    25    40    1
    18    40    41    1
    19    41    42    1
    20    42    43    1
    21    42    44    2
    22    42    45    2
    23    25    26    1
    24    26    27    2
    25    26    28    1
    26    28    29    1
    27    29    30    1
    28    30    31   ar
    29    31    32    1
    30    31    33   ar
    31    33    34    1
    32    33    35   ar
    33    35    36   ar
    34    36    37    1
    35    36    38   ar
    36    38    39    1
    37     3     4   ar
    38     4     5   ar
    39     7     8    1
    40     8     9    1
    41     9    10    1
    42    10    11    1
    43    11    12    1
    44    24    16   ar
    45     5     1   ar
    46    12     8    1
    47    23    19   ar
    48    38    30   ar
    49    13    14    1
@<TRIPOS>MOLECULE
*****
 45 49 0 0 0
SMALL
GASTEIGER

@<TRIPOS>ATOM
      1 C          61.5708   86.6268    9.3624 C.ar    1  UNL1        0.1134
      2 C          61.5588   85.9610   10.7064 C.ar    1  UNL1        0.1148
      3 N          62.6285   84.9094   10.7124 N.ar    1  UNL1       -0.2252
      4 N          63.3015   84.9253    9.3720 N.ar    1  UNL1       -0.0637
      5 N          62.6479   85.9867    8.5376 N.ar    1  UNL1       -0.1318
      6 C          60.0704   86.8381    7.8777 C.3     1  UNL1        0.0220
      7 C          60.6648   87.7376    8.9206 C.3     1  UNL1        0.0813
      8 C          61.2592   88.6371    9.9634 C.3     1  UNL1        0.0187
      9 C          60.5885   89.0835   11.2287 C.3     1  UNL1        0.0017
     10 C          61.5435   89.9705   11.9714 C.3     1  UNL1        0.0001
     11 C          62.8042   90.0723   11.1651 C.3     1  UNL1        0.0001
     12 C          62.6285   89.2482    9.9241 C.3     1  UNL1        0.0017
     13 N          59.7588   88.8485    8.4788 N.3     1  UNL1       -0.2914
     14 H          60.3359   89.6859    8.4011 H       1  UNL1        0.1238
     15 C          58.9958   88.7275    7.1930 C.3     1  UNL1        0.0959
     16 C          59.0451   89.8369    6.1845 C.ar    1  UNL1       -0.0058
     17 C          57.7978   90.5973    5.8445 C.ar    1  UNL1       -0.0013
     18 C          57.8471   91.7067    4.8360 C.ar    1  UNL1        0.0193
     19 C          59.1438   92.0555    4.1676 C.ar    1  UNL1        0.0879
     20 N          59.4974   93.0912    3.1418 N.ar    1  UNL1       -0.2363
     21 C          60.9634   92.9708    2.8479 C.ar    1  UNL1        0.1345
     22 S          61.5158   91.8607    3.6921 S.2     1  UNL1       -0.0645
     23 C          60.3912   91.2950    4.5077 C.ar    1  UNL1        0.0483
     24 C          60.3419   90.1857    5.5162 C.ar    1  UNL1        0.0051
     25 C          62.9658   84.0014   11.8577 C.3     1  UNL1        0.1693
     26 C          63.0369   84.5482   13.2526 C.2     1  UNL1        0.2166
     27 O          61.7767   84.9101   13.9815 O.2     1  UNL1       -0.2901
     28 C          64.3681   84.7333   13.9188 C.3     1  UNL1        0.2712
     29 O          64.9303   86.1120   14.1011 O.3     1  UNL1       -0.4627
     30 C          64.2668   87.0741   15.0413 C.ar    1  UNL1        0.1981
     31 C          63.7403   86.5915   16.3604 C.ar    1  UNL1        0.2034
     32 F          63.8774   85.1465   16.7392 F       1  UNL1       -0.1985
     33 C          63.0769   87.5536   17.3006 C.ar    1  UNL1        0.1728
     34 F          62.5504   87.0708   18.6196 F       1  UNL1       -0.2016
     35 C          62.9398   88.9985   16.9218 C.ar    1  UNL1        0.0641
     36 C          63.4663   89.4812   15.6028 C.ar    1  UNL1        0.1728
     37 F          63.3292   90.9261   15.2240 F       1  UNL1       -0.2016
     38 C          64.1298   88.5190   14.6625 C.ar    1  UNL1        0.2034
     39 F          64.6562   89.0017   13.3435 F       1  UNL1       -0.1985
     40 C          63.2320   82.5465   11.6080 C.3     1  UNL1        0.0574
     41 C          63.6359   81.6524   12.7428 C.3     1  UNL1        0.1533
     42 S          62.6226   80.7530   13.3862 S.O2    1  UNL1       -0.0082
     43 C          61.6092   79.8535   14.0297 C.3     1  UNL1        0.1760
     44 O          62.6888   81.5748   14.6393 O.2     1  UNL1       -0.1729
     45 O          62.5564   79.9312   12.1332 O.2     1  UNL1       -0.1729
@<TRIPOS>BOND
     1     7     6    1
     2     7    13    1
     3    13    15    1
     4    15    16    1
     5    16    17   ar
     6    17    18   ar
     7    18    19   ar
     8    19    20   ar
     9    20    21   ar
    10    21    22   ar
    11    22    23   ar
    12    23    24   ar
    13     7     1    1
    14     1     2   ar
    15     2     3   ar
    16     3    25    1
    17    25    40    1
    18    40    41    1
    19    41    42    1
    20    42    43    1
    21    42    44    2
    22    42    45    2
    23    25    26    1
    24    26    27    2
    25    26    28    1
    26    28    29    1
    27    29    30    1
    28    30    31   ar
    29    31    32    1
    30    31    33   ar
    31    33    34    1
    32    33    35   ar
    33    35    36   ar
    34    36    37    1
    35    36    38   ar
    36    38    39    1
    37     3     4   ar
    38     4     5   ar
    39     7     8    1
    40     8     9    1
    41     9    10    1
    42    10    11    1
    43    11    12    1
    44    24    16   ar
    45     5     1   ar
    46    12     8    1
    47    23    19   ar
    48    38    30   ar
    49    13    14    1
@<TRIPOS>MOLECULE
*****
 45 49 0 0 0
SMALL
GASTEIGER

@<TRIPOS>ATOM
      1 C          61.4166   87.2441   10.1400 C.ar    1  UNL1        0.1134
      2 C          62.2937   88.1110   10.9939 C.ar    1  UNL1        0.1148
      3 N          62.6770   87.3250   12.2126 N.ar    1  UNL1       -0.2252
      4 N          62.0368   85.9722   12.1119 N.ar    1  UNL1       -0.0637
      5 N          61.2579   85.9222   10.8309 N.ar    1  UNL1       -0.1318
      6 C          60.1804   88.8326    9.4703 C.3     1  UNL1        0.0220
      7 C          60.8057   87.6311    8.8258 C.3     1  UNL1        0.0813
      8 C          61.4309   86.4295    8.1813 C.3     1  UNL1        0.0187
      9 C          60.8120   85.5816    7.1099 C.3     1  UNL1        0.0017
     10 C          61.7834   84.4929    6.7615 C.3     1  UNL1        0.0001
     11 C          63.0026   84.6681    7.6176 C.3     1  UNL1        0.0001
     12 C          62.7847   85.8650    8.4951 C.3     1  UNL1        0.0017
     13 N          60.1947   88.0180    7.5117 N.3     1  UNL1       -0.2914
     14 H          59.7604   87.1777    7.1301 H       1  UNL1        0.1238
     15 C          59.1607   89.1032    7.4560 C.3     1  UNL1        0.0959
     16 C          59.1581   90.0788    6.3165 C.ar    1  UNL1       -0.0058
     17 C          57.8704   90.7022    5.8659 C.ar    1  UNL1       -0.0013
     18 C          57.8678   91.6778    4.7263 C.ar    1  UNL1        0.0193
     19 C          59.1530   92.0298    4.0376 C.ar    1  UNL1        0.0879
     20 N          59.4593   92.9514    2.8944 N.ar    1  UNL1       -0.2363
     21 C          60.9363   92.8975    2.6386 C.ar    1  UNL1        0.1345
     22 S          61.5429   91.9426    3.6236 S.2     1  UNL1       -0.0645
     23 C          60.4407   91.4063    4.4882 C.ar    1  UNL1        0.0483
     24 C          60.4432   90.4308    5.6277 C.ar    1  UNL1        0.0051
     25 C          63.5476   87.8071   13.3349 C.3     1  UNL1        0.1693
     26 C          64.0272   86.8431   14.3793 C.2     1  UNL1        0.2166
     27 O          63.5697   86.9882   15.8005 O.2     1  UNL1       -0.2901
     28 C          64.9643   85.7341   14.0026 C.3     1  UNL1        0.2712
     29 O          64.7665   84.3597   14.5702 O.3     1  UNL1       -0.4627
     30 C          63.8990   83.3693   13.8516 C.ar    1  UNL1        0.1981
     31 C          62.7308   82.7454   14.5561 C.ar    1  UNL1        0.2034
     32 F          62.4302   83.1120   15.9793 F       1  UNL1       -0.1985
     33 C          61.8633   81.7550   13.8376 C.ar    1  UNL1        0.1728
     34 F          60.6952   81.1311   14.5421 F       1  UNL1       -0.2016
     35 C          62.1639   81.3884   12.4144 C.ar    1  UNL1        0.0641
     36 C          63.3320   82.0122   11.7099 C.ar    1  UNL1        0.1728
     37 F          63.6325   81.6456   10.2868 F       1  UNL1       -0.2016
     38 C          64.1995   83.0027   12.4285 C.ar    1  UNL1        0.2034
     39 F          65.3676   83.6266   11.7240 F       1  UNL1       -0.1985
     40 C          63.9386   89.2531   13.4129 C.3     1  UNL1        0.0574
     41 C          63.6066   90.0549   14.6364 C.3     1  UNL1        0.1533
     42 S          64.5599   91.1039   15.1271 S.O2    1  UNL1       -0.0082
     43 C          65.5132   92.1528   15.6179 C.3     1  UNL1        0.1760
     44 O          65.5781   90.6476   14.1246 O.2     1  UNL1       -0.1729
     45 O          63.5417   91.5602   16.1297 O.2     1  UNL1       -0.1729
@<TRIPOS>BOND
     1     7     6    1
     2     7    13    1
     3    13    15    1
     4    15    16    1
     5    16    17   ar
     6    17    18   ar
     7    18    19   ar
     8    19    20   ar
     9    20    21   ar
    10    21    22   ar
    11    22    23   ar
    12    23    24   ar
    13     7     1    1
    14     1     2   ar
    15     2     3   ar
    16     3    25    1
    17    25    40    1
    18    40    41    1
    19    41    42    1
    20    42    43    1
    21    42    44    2
    22    42    45    2
    23    25    26    1
    24    26    27    2
    25    26    28    1
    26    28    29    1
    27    29    30    1
    28    30    31   ar
    29    31    32    1
    30    31    33   ar
    31    33    34    1
    32    33    35   ar
    33    35    36   ar
    34    36    37    1
    35    36    38   ar
    36    38    39    1
    37     3     4   ar
    38     4     5   ar
    39     7     8    1
    40     8     9    1
    41     9    10    1
    42    10    11    1
    43    11    12    1
    44    24    16   ar
    45     5     1   ar
    46    12     8    1
    47    23    19   ar
    48    38    30   ar
    49    13    14    1
@<TRIPOS>MOLECULE
*****
 45 49 0 0 0
SMALL
GASTEIGER

@<TRIPOS>ATOM
      1 C          61.2485   89.0971   10.7860 C.ar    1  UNL1        0.1134
      2 C          62.6618   89.2729   11.2567 C.ar    1  UNL1        0.1148
      3 N          62.6221   89.6967   12.6950 N.ar    1  UNL1       -0.2252
      4 N          61.1842   89.7828   13.1133 N.ar    1  UNL1       -0.0637
      5 N          60.3353   89.4122   11.9335 N.ar    1  UNL1       -0.1318
      6 C          60.2222   90.0352    9.1840 C.3     1  UNL1        0.0220
      7 C          60.8231   88.6795    9.4095 C.3     1  UNL1        0.0813
      8 C          61.4240   87.3238    9.6351 C.3     1  UNL1        0.0187
      9 C          62.3742   86.6164    8.7150 C.3     1  UNL1        0.0017
     10 C          62.7176   85.2928    9.3317 C.3     1  UNL1        0.0001
     11 C          61.9797   85.1822   10.6329 C.3     1  UNL1        0.0001
     12 C          61.1802   86.4374   10.8205 C.3     1  UNL1        0.0017
     13 N          60.3976   88.2619    8.0331 N.3     1  UNL1       -0.2914
     14 H          60.3506   87.2430    8.0359 H       1  UNL1        0.1238
     15 C          59.0980   88.7538    7.4683 C.3     1  UNL1        0.0959
     16 C          59.0958   89.7957    6.3891 C.ar    1  UNL1       -0.0058
     17 C          57.8135   90.4692    5.9994 C.ar    1  UNL1       -0.0013
     18 C          57.8113   91.5111    4.9203 C.ar    1  UNL1        0.0193
     19 C          59.0916   91.8795    4.2309 C.ar    1  UNL1        0.0879
     20 N          59.3971   92.8620    3.1394 N.ar    1  UNL1       -0.2363
     21 C          60.8683   92.7957    2.8546 C.ar    1  UNL1        0.1345
     22 S          61.4720   91.7722    3.7700 S.2     1  UNL1       -0.0645
     23 C          60.3740   91.2060    4.6206 C.ar    1  UNL1        0.0483
     24 C          60.3761   90.1641    5.6997 C.ar    1  UNL1        0.0051
     25 C          63.8115   89.9839   13.5627 C.3     1  UNL1        0.1693
     26 C          64.4770   91.3269   13.5025 C.2     1  UNL1        0.2166
     27 O          64.7615   92.0804   14.7680 O.2     1  UNL1       -0.2901
     28 C          64.8579   91.9165   12.1768 C.3     1  UNL1        0.2712
     29 O          65.6286   93.2022   12.1214 O.3     1  UNL1       -0.4627
     30 C          66.4128   93.5541   10.8922 C.ar    1  UNL1        0.1981
     31 C          66.0411   94.7632   10.0860 C.ar    1  UNL1        0.2034
     32 F          64.8851   95.6204   10.5091 F       1  UNL1       -0.1985
     33 C          66.8253   95.1151    8.8568 C.ar    1  UNL1        0.1728
     34 F          66.4536   96.3243    8.0506 F       1  UNL1       -0.2016
     35 C          67.9813   94.2580    8.4336 C.ar    1  UNL1        0.0641
     36 C          68.3530   93.0489    9.2398 C.ar    1  UNL1        0.1728
     37 F          69.5090   92.1918    8.8167 F       1  UNL1       -0.2016
     38 C          67.5688   92.6970   10.4691 C.ar    1  UNL1        0.2034
     39 F          67.9405   91.4879   11.2753 F       1  UNL1       -0.1985
     40 C          64.3354   88.9283   14.4906 C.3     1  UNL1        0.0574
     41 C          64.2598   87.4819   14.1001 C.3     1  UNL1        0.1533
     42 S          63.9661   86.4393   15.1378 S.O2    1  UNL1       -0.0082
     43 C          63.6725   85.3968   16.1755 C.3     1  UNL1        0.1760
     44 O          64.4047   85.3673   14.1848 O.2     1  UNL1       -0.1729
     45 O          63.5276   87.5114   16.0908 O.2     1  UNL1       -0.1729
@<TRIPOS>BOND
     1     7     6    1
     2     7    13    1
     3    13    15    1
     4    15    16    1
     5    16    17   ar
     6    17    18   ar
     7    18    19   ar
     8    19    20   ar
     9    20    21   ar
    10    21    22   ar
    11    22    23   ar
    12    23    24   ar
    13     7     1    1
    14     1     2   ar
    15     2     3   ar
    16     3    25    1
    17    25    40    1
    18    40    41    1
    19    41    42    1
    20    42    43    1
    21    42    44    2
    22    42    45    2
    23    25    26    1
    24    26    27    2
    25    26    28    1
    26    28    29    1
    27    29    30    1
    28    30    31   ar
    29    31    32    1
    30    31    33   ar
    31    33    34    1
    32    33    35   ar
    33    35    36   ar
    34    36    37    1
    35    36    38   ar
    36    38    39    1
    37     3     4   ar
    38     4     5   ar
    39     7     8    1
    40     8     9    1
    41     9    10    1
    42    10    11    1
    43    11    12    1
    44    24    16   ar
    45     5     1   ar
    46    12     8    1
    47    23    19   ar
    48    38    30   ar
    49    13    14    1
@<TRIPOS>MOLECULE
*****
 45 49 0 0 0
SMALL
GASTEIGER

@<TRIPOS>ATOM
      1 C          61.3997   87.2805   10.1331 C.ar    1  UNL1        0.1134
      2 C          62.2929   88.1318   10.9860 C.ar    1  UNL1        0.1148
      3 N          62.6581   87.3416   12.2076 N.ar    1  UNL1       -0.2252
      4 N          61.9906   86.0019   12.1097 N.ar    1  UNL1       -0.0637
      5 N          61.2129   85.9641   10.8276 N.ar    1  UNL1       -0.1318
      6 C          60.1852   88.8842    9.4601 C.3     1  UNL1        0.0220
      7 C          60.7988   87.6760    8.8169 C.3     1  UNL1        0.0813
      8 C          61.4124   86.4678    8.1737 C.3     1  UNL1        0.0187
      9 C          60.7725   85.6061    7.1258 C.3     1  UNL1        0.0017
     10 C          61.7383   84.5149    6.7700 C.3     1  UNL1        0.0001
     11 C          62.9750   84.7022    7.5979 C.3     1  UNL1        0.0001
     12 C          62.7736   85.9091    8.4654 C.3     1  UNL1        0.0017
     13 N          60.1980   88.0716    7.5007 N.3     1  UNL1       -0.2914
     14 H          59.7621   87.2350    7.1127 H       1  UNL1        0.1238
     15 C          59.1695   89.1620    7.4432 C.3     1  UNL1        0.0959
     16 C          59.1554   90.1194    6.2885 C.ar    1  UNL1       -0.0058
     17 C          57.8607   90.7220    5.8297 C.ar    1  UNL1       -0.0013
     18 C          57.8466   91.6794    4.6750 C.ar    1  UNL1        0.0193
     19 C          59.1272   92.0341    3.9791 C.ar    1  UNL1        0.0879
     20 N          59.4225   92.9408    2.8212 N.ar    1  UNL1       -0.2363
     21 C          60.8997   92.8984    2.5644 C.ar    1  UNL1        0.1345
     22 S          61.5174   91.9656    3.5636 S.2     1  UNL1       -0.0645
     23 C          60.4219   91.4314    4.4379 C.ar    1  UNL1        0.0483
     24 C          60.4360   90.4741    5.5926 C.ar    1  UNL1        0.0051
     25 C          63.5365   87.8091   13.3300 C.3     1  UNL1        0.1693
     26 C          64.0179   86.8329   14.3621 C.2     1  UNL1        0.2166
     27 O          63.6288   87.0088   15.8001 O.2     1  UNL1       -0.2901
     28 C          64.8885   85.6807   13.9563 C.3     1  UNL1        0.2712
     29 O          64.6669   84.3248   14.5586 O.3     1  UNL1       -0.4627
     30 C          63.8347   83.3091   13.8336 C.ar    1  UNL1        0.1981
     31 C          64.1669   82.9393   12.4184 C.ar    1  UNL1        0.2034
     32 F          65.3315   83.5853   11.7280 F       1  UNL1       -0.1985
     33 C          63.3346   81.9237   11.6934 C.ar    1  UNL1        0.1728
     34 F          63.6669   81.5539   10.2781 F       1  UNL1       -0.2016
     35 C          62.1700   81.2777   12.3837 C.ar    1  UNL1        0.0641
     36 C          61.8378   81.6474   13.7989 C.ar    1  UNL1        0.1728
     37 F          60.6732   81.0014   14.4891 F       1  UNL1       -0.2016
     38 C          62.6701   82.6631   14.5239 C.ar    1  UNL1        0.2034
     39 F          62.3379   83.0328   15.9391 F       1  UNL1       -0.1985
     40 C          63.9336   89.2527   13.4203 C.3     1  UNL1        0.0574
     41 C          63.6653   90.0272   14.6766 C.3     1  UNL1        0.1533
     42 S          64.6174   91.1007   15.1136 S.O2    1  UNL1       -0.0082
     43 C          65.5695   92.1743   15.5506 C.3     1  UNL1        0.1760
     44 O          65.6318   90.6026   14.1273 O.2     1  UNL1       -0.1729
     45 O          63.6030   91.5989   16.0998 O.2     1  UNL1       -0.1729
@<TRIPOS>BOND
     1     7     6    1
     2     7    13    1
     3    13    15    1
     4    15    16    1
     5    16    17   ar
     6    17    18   ar
     7    18    19   ar
     8    19    20   ar
     9    20    21   ar
    10    21    22   ar
    11    22    23   ar
    12    23    24   ar
    13     7     1    1
    14     1     2   ar
    15     2     3   ar
    16     3    25    1
    17    25    40    1
    18    40    41    1
    19    41    42    1
    20    42    43    1
    21    42    44    2
    22    42    45    2
    23    25    26    1
    24    26    27    2
    25    26    28    1
    26    28    29    1
    27    29    30    1
    28    30    31   ar
    29    31    32    1
    30    31    33   ar
    31    33    34    1
    32    33    35   ar
    33    35    36   ar
    34    36    37    1
    35    36    38   ar
    36    38    39    1
    37     3     4   ar
    38     4     5   ar
    39     7     8    1
    40     8     9    1
    41     9    10    1
    42    10    11    1
    43    11    12    1
    44    24    16   ar
    45     5     1   ar
    46    12     8    1
    47    23    19   ar
    48    38    30   ar
    49    13    14    1
@<TRIPOS>MOLECULE
*****
 45 49 0 0 0
SMALL
GASTEIGER

@<TRIPOS>ATOM
      1 C          61.2761   89.1018   10.7789 C.ar    1  UNL1        0.1134
      2 C          62.6850   89.2779   11.2623 C.ar    1  UNL1        0.1148
      3 N          62.6324   89.6935   12.7026 N.ar    1  UNL1       -0.2252
      4 N          61.1909   89.7744   13.1093 N.ar    1  UNL1       -0.0637
      5 N          60.3526   89.4087   11.9204 N.ar    1  UNL1       -0.1318
      6 C          60.2677   90.0491    9.1709 C.3     1  UNL1        0.0220
      7 C          60.8631   88.6910    9.3966 C.3     1  UNL1        0.0813
      8 C          61.4585   87.3329    9.6223 C.3     1  UNL1        0.0187
      9 C          62.3784   86.6069    8.6861 C.3     1  UNL1        0.0017
     10 C          62.7270   85.2876    9.3090 C.3     1  UNL1        0.0001
     11 C          62.0225   85.1983   10.6303 C.3     1  UNL1        0.0001
     12 C          61.2385   86.4623   10.8239 C.3     1  UNL1        0.0017
     13 N          60.4501   88.2802    8.0143 N.3     1  UNL1       -0.2914
     14 H          60.4214   87.2606    8.0064 H       1  UNL1        0.1238
     15 C          59.1438   88.7546    7.4498 C.3     1  UNL1        0.0959
     16 C          59.1272   89.7998    6.3740 C.ar    1  UNL1       -0.0058
     17 C          57.8378   90.4662    5.9957 C.ar    1  UNL1       -0.0013
     18 C          57.8211   91.5115    4.9199 C.ar    1  UNL1        0.0193
     19 C          59.0940   91.8903    4.2225 C.ar    1  UNL1        0.0879
     20 N          59.3853   92.8781    3.1320 N.ar    1  UNL1       -0.2363
     21 C          60.8548   92.8222    2.8364 C.ar    1  UNL1        0.1345
     22 S          61.4717   91.7998    3.7442 S.2     1  UNL1       -0.0645
     23 C          60.3834   91.2238    4.6009 C.ar    1  UNL1        0.0483
     24 C          60.4000   90.1786    5.6766 C.ar    1  UNL1        0.0051
     25 C          63.8139   89.9784   13.5818 C.3     1  UNL1        0.1693
     26 C          64.4855   91.3184   13.5249 C.2     1  UNL1        0.2166
     27 O          64.7455   92.0814   14.7899 O.2     1  UNL1       -0.2901
     28 C          64.8970   91.8956   12.2029 C.3     1  UNL1        0.2712
     29 O          65.7273   93.1440   12.1554 O.3     1  UNL1       -0.4627
     30 C          66.4711   93.5026   10.9032 C.ar    1  UNL1        0.1981
     31 C          67.6033   92.6398   10.4301 C.ar    1  UNL1        0.2034
     32 F          67.9916   91.4182   11.2092 F       1  UNL1       -0.1985
     33 C          68.3471   92.9985    9.1780 C.ar    1  UNL1        0.1728
     34 F          69.4793   92.1356    8.7049 F       1  UNL1       -0.2016
     35 C          67.9589   94.2201    8.3988 C.ar    1  UNL1        0.0641
     36 C          66.8268   95.0829    8.8719 C.ar    1  UNL1        0.1728
     37 F          66.4386   96.3045    8.0927 F       1  UNL1       -0.2016
     38 C          66.0829   94.7242   10.1241 C.ar    1  UNL1        0.2034
     39 F          64.9508   95.5870   10.5971 F       1  UNL1       -0.1985
     40 C          64.3238   88.9231   14.5180 C.3     1  UNL1        0.0574
     41 C          64.3111   87.4820   14.1022 C.3     1  UNL1        0.1533
     42 S          63.9736   86.4159   15.1020 S.O2    1  UNL1       -0.0082
     43 C          63.6361   85.3498   16.1017 C.3     1  UNL1        0.1760
     44 O          64.3641   85.3613   14.1093 O.2     1  UNL1       -0.1729
     45 O          63.5832   87.4704   16.0947 O.2     1  UNL1       -0.1729
@<TRIPOS>BOND
     1     7     6    1
     2     7    13    1
     3    13    15    1
     4    15    16    1
     5    16    17   ar
     6    17    18   ar
     7    18    19   ar
     8    19    20   ar
     9    20    21   ar
    10    21    22   ar
    11    22    23   ar
    12    23    24   ar
    13     7     1    1
    14     1     2   ar
    15     2     3   ar
    16     3    25    1
    17    25    40    1
    18    40    41    1
    19    41    42    1
    20    42    43    1
    21    42    44    2
    22    42    45    2
    23    25    26    1
    24    26    27    2
    25    26    28    1
    26    28    29    1
    27    29    30    1
    28    30    31   ar
    29    31    32    1
    30    31    33   ar
    31    33    34    1
    32    33    35   ar
    33    35    36   ar
    34    36    37    1
    35    36    38   ar
    36    38    39    1
    37     3     4   ar
    38     4     5   ar
    39     7     8    1
    40     8     9    1
    41     9    10    1
    42    10    11    1
    43    11    12    1
    44    24    16   ar
    45     5     1   ar
    46    12     8    1
    47    23    19   ar
    48    38    30   ar
    49    13    14    1
@<TRIPOS>MOLECULE
*****
 45 49 0 0 0
SMALL
GASTEIGER

@<TRIPOS>ATOM
      1 C          62.2298   89.1095   11.4451 C.ar    1  UNL1        0.1134
      2 C          62.4522   88.3953   10.1450 C.ar    1  UNL1        0.1148
      3 N          61.6660   87.1183   10.1772 N.ar    1  UNL1       -0.2252
      4 N          60.9576   87.0433   11.4973 N.ar    1  UNL1       -0.0637
      5 N          61.3061   88.2739   12.2809 N.ar    1  UNL1       -0.1318
      6 C          62.3556   91.0279   10.5484 C.3     1  UNL1        0.0220
      7 C          62.8264   90.4279   11.8401 C.3     1  UNL1        0.0813
      8 C          63.2971   89.8279   13.1317 C.3     1  UNL1        0.0187
      9 C          64.0391   88.5332   13.2837 C.3     1  UNL1        0.0017
     10 C          64.3091   88.3224   14.7441 C.3     1  UNL1        0.0001
     11 C          63.7340   89.4868   15.4946 C.3     1  UNL1        0.0001
     12 C          63.1086   90.4173   14.4981 C.3     1  UNL1        0.0017
     13 N          63.4229   91.7463   12.2350 N.3     1  UNL1       -0.2914
     14 H          63.6245   91.6910   13.2334 H       1  UNL1        0.1238
     15 C          64.6744   92.2334   11.5669 C.3     1  UNL1        0.0959
     16 C          65.9638   92.2797   12.3322 C.ar    1  UNL1       -0.0058
     17 C          67.2567   91.9573   11.6435 C.ar    1  UNL1       -0.0013
     18 C          68.5460   92.0036   12.4088 C.ar    1  UNL1        0.0193
     19 C          68.5423   92.3723   13.8628 C.ar    1  UNL1        0.0879
     20 N          69.6478   92.5006   14.8685 N.ar    1  UNL1       -0.2363
     21 C          69.0380   92.9022   16.1788 C.ar    1  UNL1        0.1345
     22 S          67.5557   93.0222   15.9828 S.2     1  UNL1       -0.0645
     23 C          67.2493   92.6947   14.5514 C.ar    1  UNL1        0.0483
     24 C          65.9601   92.6484   13.7862 C.ar    1  UNL1        0.0051
     25 C          61.5997   86.0957    9.0817 C.3     1  UNL1        0.1693
     26 C          62.7944   85.2400    8.7812 C.2     1  UNL1        0.2166
     27 O          63.7486   85.6390    7.6948 O.2     1  UNL1       -0.2901
     28 C          63.0350   83.9852    9.5672 C.3     1  UNL1        0.2712
     29 O          63.7237   84.0542   10.8980 O.3     1  UNL1       -0.4627
     30 C          63.1933   83.2658   12.0586 C.ar    1  UNL1        0.1981
     31 C          62.9426   83.9429   13.3734 C.ar    1  UNL1        0.2034
     32 F          63.2223   85.4086   13.5276 F       1  UNL1       -0.1985
     33 C          62.4123   83.1546   14.5340 C.ar    1  UNL1        0.1728
     34 F          62.1617   83.8318   15.8488 F       1  UNL1       -0.2016
     35 C          62.1327   81.6889   14.3800 C.ar    1  UNL1        0.0641
     36 C          62.3833   81.0118   13.0652 C.ar    1  UNL1        0.1728
     37 F          62.1037   79.5462   12.9112 F       1  UNL1       -0.2016
     38 C          62.9137   81.8002   11.9046 C.ar    1  UNL1        0.2034
     39 F          63.1644   81.1230   10.5898 F       1  UNL1       -0.1985
     40 C          60.3387   85.9290    8.2867 C.3     1  UNL1        0.0574
     41 C          59.2557   86.9633    8.3724 C.3     1  UNL1        0.1533
     42 S          59.3175   88.1874    7.5076 S.O2    1  UNL1       -0.0082
     43 C          59.3793   89.4114    6.6428 C.3     1  UNL1        0.1760
     44 O          59.5455   89.0351    8.7239 O.2     1  UNL1       -0.1729
     45 O          59.0895   87.3396    6.2914 O.2     1  UNL1       -0.1729
@<TRIPOS>BOND
     1     7     6    1
     2     7    13    1
     3    13    15    1
     4    15    16    1
     5    16    17   ar
     6    17    18   ar
     7    18    19   ar
     8    19    20   ar
     9    20    21   ar
    10    21    22   ar
    11    22    23   ar
    12    23    24   ar
    13     7     1    1
    14     1     2   ar
    15     2     3   ar
    16     3    25    1
    17    25    40    1
    18    40    41    1
    19    41    42    1
    20    42    43    1
    21    42    44    2
    22    42    45    2
    23    25    26    1
    24    26    27    2
    25    26    28    1
    26    28    29    1
    27    29    30    1
    28    30    31   ar
    29    31    32    1
    30    31    33   ar
    31    33    34    1
    32    33    35   ar
    33    35    36   ar
    34    36    37    1
    35    36    38   ar
    36    38    39    1
    37     3     4   ar
    38     4     5   ar
    39     7     8    1
    40     8     9    1
    41     9    10    1
    42    10    11    1
    43    11    12    1
    44    24    16   ar
    45     5     1   ar
    46    12     8    1
    47    23    19   ar
    48    38    30   ar
    49    13    14    1
@<TRIPOS>MOLECULE
*****
 45 49 0 0 0
SMALL
GASTEIGER

@<TRIPOS>ATOM
      1 C          64.1153   89.6553   14.1262 C.ar    1  UNL1        0.1134
      2 C          64.0765   88.3204   13.4433 C.ar    1  UNL1        0.1148
      3 N          63.9137   87.2652   14.4969 N.ar    1  UNL1       -0.2252
      4 N          63.8519   87.9480   15.8310 N.ar    1  UNL1       -0.0637
      5 N          63.9765   89.4251   15.6020 N.ar    1  UNL1       -0.1318
      6 C          63.2134   90.6015   12.4556 C.3     1  UNL1        0.0220
      7 C          64.2665   90.9866   13.4519 C.3     1  UNL1        0.0813
      8 C          65.3196   91.3717   14.4482 C.3     1  UNL1        0.0187
      9 C          65.1061   92.1981   15.6817 C.3     1  UNL1        0.0017
     10 C          66.4257   92.3352   16.3818 C.3     1  UNL1        0.0001
     11 C          67.4546   91.5935   15.5810 C.3     1  UNL1        0.0001
     12 C          66.7710   90.9980   14.3860 C.3     1  UNL1        0.0017
     13 N          64.4176   92.3179   12.7776 N.3     1  UNL1       -0.2914
     14 H          63.7669   92.9558   13.2360 H       1  UNL1        0.1238
     15 C          65.7527   93.0015   12.7580 C.3     1  UNL1        0.0959
     16 C          66.2997   93.5419   11.4700 C.ar    1  UNL1       -0.0058
     17 C          67.1169   92.6598   10.5734 C.ar    1  UNL1       -0.0013
     18 C          67.6639   93.2002    9.2854 C.ar    1  UNL1        0.0193
     19 C          67.3936   94.6228    8.8942 C.ar    1  UNL1        0.0879
     20 N          67.7981   95.4281    7.6951 N.ar    1  UNL1       -0.2363
     21 C          67.2308   96.8080    7.8506 C.ar    1  UNL1        0.1345
     22 S          66.4758   96.8555    9.1459 S.2     1  UNL1       -0.0645
     23 C          66.5764   95.5050    9.7908 C.ar    1  UNL1        0.0483
     24 C          66.0294   94.9645   11.0787 C.ar    1  UNL1        0.0051
     25 C          63.8278   85.7868   14.2582 C.3     1  UNL1        0.1693
     26 C          62.5021   85.1507   13.9618 C.2     1  UNL1        0.2166
     27 O          61.6517   84.6317   15.0833 O.2     1  UNL1       -0.2901
     28 C          62.0266   85.0336   12.5440 C.3     1  UNL1        0.2712
     29 O          62.5949   85.9321   11.4857 O.3     1  UNL1       -0.4627
     30 C          61.9862   85.9547   10.1150 C.ar    1  UNL1        0.1981
     31 C          62.6576   85.2333    8.9842 C.ar    1  UNL1        0.2034
     32 F          63.9379   84.4894    9.2241 F       1  UNL1       -0.1985
     33 C          62.0490   85.2559    7.6135 C.ar    1  UNL1        0.1728
     34 F          62.7206   84.5345    6.4826 F       1  UNL1       -0.2016
     35 C          60.7688   85.9998    7.3735 C.ar    1  UNL1        0.0641
     36 C          60.0973   86.7212    8.5043 C.ar    1  UNL1        0.1728
     37 F          58.8170   87.4651    8.2643 F       1  UNL1       -0.2016
     38 C          60.7060   86.6986    9.8750 C.ar    1  UNL1        0.2034
     39 F          60.0345   87.4200   11.0058 F       1  UNL1       -0.1985
     40 C          65.0676   84.9445   14.3159 C.3     1  UNL1        0.0574
     41 C          64.9596   83.4654   14.5415 C.3     1  UNL1        0.1533
     42 S          64.2827   82.5986   13.5215 S.O2    1  UNL1       -0.0082
     43 C          63.6058   81.7318   12.5016 C.3     1  UNL1        0.1760
     44 O          65.0241   83.3075   12.4271 O.2     1  UNL1       -0.1729
     45 O          63.5413   81.8898   14.6160 O.2     1  UNL1       -0.1729
@<TRIPOS>BOND
     1     7     6    1
     2     7    13    1
     3    13    15    1
     4    15    16    1
     5    16    17   ar
     6    17    18   ar
     7    18    19   ar
     8    19    20   ar
     9    20    21   ar
    10    21    22   ar
    11    22    23   ar
    12    23    24   ar
    13     7     1    1
    14     1     2   ar
    15     2     3   ar
    16     3    25    1
    17    25    40    1
    18    40    41    1
    19    41    42    1
    20    42    43    1
    21    42    44    2
    22    42    45    2
    23    25    26    1
    24    26    27    2
    25    26    28    1
    26    28    29    1
    27    29    30    1
    28    30    31   ar
    29    31    32    1
    30    31    33   ar
    31    33    34    1
    32    33    35   ar
    33    35    36   ar
    34    36    37    1
    35    36    38   ar
    36    38    39    1
    37     3     4   ar
    38     4     5   ar
    39     7     8    1
    40     8     9    1
    41     9    10    1
    42    10    11    1
    43    11    12    1
    44    24    16   ar
    45     5     1   ar
    46    12     8    1
    47    23    19   ar
    48    38    30   ar
    49    13    14    1
