@<TRIPOS>MOLECULE
*****
 25 27 0 0 0
SMALL
GASTEIGER

@<TRIPOS>ATOM
      1 C          63.7306   86.2772   16.0505 C.ar    1  UNL1        0.1386
      2 C          63.0789   87.1853   17.0509 C.ar    1  UNL1        0.0370
      3 C          63.0656   88.6675   16.8213 C.ar    1  UNL1        0.0060
      4 C          63.7039   89.2417   15.5913 C.ar    1  UNL1        0.0363
      5 C          64.3555   88.3337   14.5909 C.ar    1  UNL1        0.0060
      6 C          64.3689   86.8514   14.8206 C.ar    1  UNL1        0.0370
      7 C          63.6904   90.7240   15.3617 C.2     1  UNL1        0.1892
      8 O          63.5863   91.6625   16.5271 O.2     1  UNL1       -0.2899
      9 C          63.7812   91.2677   13.9667 C.3     1  UNL1        0.1424
     10 N          65.1085   91.6937   13.4126 N.3     1  UNL1       -0.2619
     11 C          66.3544   91.5131   14.2279 C.3     1  UNL1        0.1050
     12 C          67.6816   91.9391   13.6738 C.3     1  UNL1        0.1595
     13 O          67.7628   92.5457   12.3043 O.3     1  UNL1       -0.3508
     14 C          66.5168   92.7263   11.4890 C.3     1  UNL1        0.1595
     15 C          65.1896   92.3003   12.0431 C.3     1  UNL1        0.1050
     16 O          63.7441   84.7949   16.2802 O.3     1  UNL1       -0.4754
     17 C          64.1950   83.8709   15.1881 C.3     1  UNL1        0.2068
     18 C          63.2477   82.8502   14.6304 C.3     1  UNL1        0.0646
     19 C          62.3750   83.1969   13.4608 C.3     1  UNL1        0.0759
     20 C          61.9021   85.6661   11.3802 C.3     1  UNL1        0.0173
     21 C          62.7548   84.4569   11.1342 C.3     1  UNL1        0.0576
     22 C          63.5398   84.1703    9.8885 C.3     1  UNL1        0.0174
     23 C          64.2424   82.8581   10.0750 C.3     1  UNL1        0.0187
     24 C          63.8916   82.3338   11.4359 C.3     1  UNL1        0.0721
     25 N          62.9722   83.3219   12.0905 N.3     1  UNL1       -0.2738
@<TRIPOS>BOND
     1    21    20    1
     2    21    22    1
     3    22    23    1
     4    23    24    1
     5    24    25    1
     6    25    19    1
     7    19    18    1
     8    18    17    1
     9    17    16    1
    10    16     1    1
    11     1     2   ar
    12     2     3   ar
    13     3     4   ar
    14     4     7    1
    15     7     8    2
    16     7     9    1
    17     9    10    1
    18    10    11    1
    19    11    12    1
    20    12    13    1
    21    13    14    1
    22    14    15    1
    23     4     5   ar
    24     5     6   ar
    25    25    21    1
    26     6     1   ar
    27    15    10    1
@<TRIPOS>MOLECULE
*****
 25 27 0 0 0
SMALL
GASTEIGER

@<TRIPOS>ATOM
      1 C          63.6323   86.4524   16.0539 C.ar    1  UNL1        0.1386
      2 C          64.2809   86.9963   14.8156 C.ar    1  UNL1        0.0370
      3 C          64.3234   88.4770   14.5797 C.ar    1  UNL1        0.0060
      4 C          63.7174   89.4139   15.5822 C.ar    1  UNL1        0.0363
      5 C          63.0688   88.8700   16.8206 C.ar    1  UNL1        0.0060
      6 C          63.0263   87.3893   17.0564 C.ar    1  UNL1        0.0370
      7 C          63.7599   90.8946   15.3464 C.2     1  UNL1        0.1892
      8 O          63.7179   91.8409   16.5095 O.2     1  UNL1       -0.2899
      9 C          63.8444   91.4291   13.9474 C.3     1  UNL1        0.1424
     10 N          65.1788   91.7752   13.3561 N.3     1  UNL1       -0.2619
     11 C          65.2608   92.3390   11.9685 C.3     1  UNL1        0.1050
     12 C          66.5952   92.6850   11.3772 C.3     1  UNL1        0.1595
     13 O          67.8476   92.4674   12.1736 O.3     1  UNL1       -0.3508
     14 C          67.7656   91.9037   13.5612 C.3     1  UNL1        0.1595
     15 C          66.4312   91.5576   14.1524 C.3     1  UNL1        0.1050
     16 O          63.5898   84.9717   16.2898 O.3     1  UNL1       -0.4754
     17 C          62.4193   84.1684   15.8055 C.3     1  UNL1        0.2068
     18 C          62.6414   82.9777   14.9206 C.3     1  UNL1        0.0646
     19 C          63.8969   82.8719   14.1067 C.3     1  UNL1        0.0759
     20 C          62.5267   80.2223   12.7833 C.3     1  UNL1        0.0173
     21 C          63.1872   81.3411   12.0336 C.3     1  UNL1        0.0576
     22 C          63.3338   81.4384   10.5440 C.3     1  UNL1        0.0174
     23 C          64.0543   82.7165   10.2316 C.3     1  UNL1        0.0187
     24 C          64.3529   83.4090   11.5282 C.3     1  UNL1        0.0721
     25 N          63.8170   82.5590   12.6419 N.3     1  UNL1       -0.2738
@<TRIPOS>BOND
     1    21    20    1
     2    21    22    1
     3    22    23    1
     4    23    24    1
     5    24    25    1
     6    25    19    1
     7    19    18    1
     8    18    17    1
     9    17    16    1
    10    16     1    1
    11     1     2   ar
    12     2     3   ar
    13     3     4   ar
    14     4     7    1
    15     7     8    2
    16     7     9    1
    17     9    10    1
    18    10    11    1
    19    11    12    1
    20    12    13    1
    21    13    14    1
    22    14    15    1
    23     4     5   ar
    24     5     6   ar
    25    25    21    1
    26     6     1   ar
    27    15    10    1
@<TRIPOS>MOLECULE
*****
 25 27 0 0 0
SMALL
GASTEIGER

@<TRIPOS>ATOM
      1 C          64.2225   90.5572   15.1797 C.ar    1  UNL1        0.1386
      2 C          63.4481   90.3621   16.4494 C.ar    1  UNL1        0.0370
      3 C          63.0748   88.9794   16.8953 C.ar    1  UNL1        0.0060
      4 C          63.4759   87.7918   16.0714 C.ar    1  UNL1        0.0363
      5 C          64.2502   87.9869   14.8017 C.ar    1  UNL1        0.0060
      6 C          64.6235   89.3696   14.3558 C.ar    1  UNL1        0.0370
      7 C          63.1025   86.4091   16.5173 C.2     1  UNL1        0.1892
      8 O          61.8136   86.1796   17.2493 O.2     1  UNL1       -0.2899
      9 C          64.0182   85.2560   16.2312 C.3     1  UNL1        0.1424
     10 N          63.7117   84.3171   15.1022 N.3     1  UNL1       -0.2619
     11 C          62.5699   83.3513   15.2189 C.3     1  UNL1        0.1050
     12 C          62.2635   82.4125   14.0899 C.3     1  UNL1        0.1595
     13 O          63.0988   82.4394   12.8443 O.3     1  UNL1       -0.3508
     14 C          64.2405   83.4052   12.7276 C.3     1  UNL1        0.1595
     15 C          64.5469   84.3440   13.8566 C.3     1  UNL1        0.1050
     16 O          64.5958   91.9399   14.7338 O.3     1  UNL1       -0.4754
     17 C          66.0246   92.3907   14.8050 C.3     1  UNL1        0.2068
     18 C          66.8413   92.4959   13.5512 C.3     1  UNL1        0.0646
     19 C          66.1616   92.6745   12.2261 C.3     1  UNL1        0.0759
     20 C          66.0482   95.4987   10.5951 C.3     1  UNL1        0.0173
     21 C          66.9159   94.3217   10.2608 C.3     1  UNL1        0.0576
     22 C          67.8839   94.2362    9.1181 C.3     1  UNL1        0.0174
     23 C          68.5343   92.8852    9.1616 C.3     1  UNL1        0.0187
     24 C          67.9682   92.1357   10.3311 C.3     1  UNL1        0.0721
     25 N          66.9680   93.0235   11.0105 N.3     1  UNL1       -0.2738
@<TRIPOS>BOND
     1    21    20    1
     2    21    22    1
     3    22    23    1
     4    23    24    1
     5    24    25    1
     6    25    19    1
     7    19    18    1
     8    18    17    1
     9    17    16    1
    10    16     1    1
    11     1     2   ar
    12     2     3   ar
    13     3     4   ar
    14     4     7    1
    15     7     8    2
    16     7     9    1
    17     9    10    1
    18    10    11    1
    19    11    12    1
    20    12    13    1
    21    13    14    1
    22    14    15    1
    23     4     5   ar
    24     5     6   ar
    25    25    21    1
    26     6     1   ar
    27    15    10    1
@<TRIPOS>MOLECULE
*****
 25 27 0 0 0
SMALL
GASTEIGER

@<TRIPOS>ATOM
      1 C          62.9560   89.4169   12.2705 C.ar    1  UNL1        0.1386
      2 C          63.7746   89.3789   13.5268 C.ar    1  UNL1        0.0370
      3 C          64.7772   90.4602   13.8016 C.ar    1  UNL1        0.0060
      4 C          64.9613   91.5795   12.8201 C.ar    1  UNL1        0.0363
      5 C          64.1427   91.6175   11.5638 C.ar    1  UNL1        0.0060
      6 C          63.1401   90.5362   11.2889 C.ar    1  UNL1        0.0370
      7 C          65.9639   92.6608   13.0950 C.2     1  UNL1        0.1892
      8 O          66.8177   92.5964   14.3267 O.2     1  UNL1       -0.2899
      9 C          66.1128   93.8064   12.1383 C.3     1  UNL1        0.1424
     10 N          66.8485   93.6130   10.8454 N.3     1  UNL1       -0.2619
     11 C          67.6494   92.3654   10.6175 C.3     1  UNL1        0.1050
     12 C          68.3850   92.1721    9.3246 C.3     1  UNL1        0.1595
     13 O          68.3196   93.2264    8.2597 O.3     1  UNL1       -0.3508
     14 C          67.5187   94.4740    8.4875 C.3     1  UNL1        0.1595
     15 C          66.7831   94.6673    9.7804 C.3     1  UNL1        0.1050
     16 O          61.9534   88.3356   11.9956 O.3     1  UNL1       -0.4754
     17 C          62.2932   87.2198   11.0525 C.3     1  UNL1        0.2068
     18 C          62.0388   85.7965   11.4519 C.3     1  UNL1        0.0646
     19 C          62.9148   85.1366   12.4751 C.3     1  UNL1        0.0759
     20 C          63.9761   82.9110   10.3374 C.3     1  UNL1        0.0173
     21 C          63.3552   82.6252   11.6727 C.3     1  UNL1        0.0576
     22 C          63.1131   81.2663   12.2597 C.3     1  UNL1        0.0174
     23 C          62.4756   81.4494   13.6051 C.3     1  UNL1        0.0187
     24 C          62.3238   82.9215   13.8496 C.3     1  UNL1        0.0721
     25 N          62.8674   83.6482   12.6552 N.3     1  UNL1       -0.2738
@<TRIPOS>BOND
     1    21    20    1
     2    21    22    1
     3    22    23    1
     4    23    24    1
     5    24    25    1
     6    25    19    1
     7    19    18    1
     8    18    17    1
     9    17    16    1
    10    16     1    1
    11     1     2   ar
    12     2     3   ar
    13     3     4   ar
    14     4     7    1
    15     7     8    2
    16     7     9    1
    17     9    10    1
    18    10    11    1
    19    11    12    1
    20    12    13    1
    21    13    14    1
    22    14    15    1
    23     4     5   ar
    24     5     6   ar
    25    25    21    1
    26     6     1   ar
    27    15    10    1
@<TRIPOS>MOLECULE
*****
 25 27 0 0 0
SMALL
GASTEIGER

@<TRIPOS>ATOM
      1 C          63.6638   90.7603   12.4651 C.ar    1  UNL1        0.1386
      2 C          63.0380   90.8671   11.1061 C.ar    1  UNL1        0.0370
      3 C          62.4818   89.6444   10.4385 C.ar    1  UNL1        0.0060
      4 C          62.5514   88.3151   11.1298 C.ar    1  UNL1        0.0363
      5 C          63.1773   88.2083   12.4888 C.ar    1  UNL1        0.0060
      6 C          63.7334   89.4310   13.1565 C.ar    1  UNL1        0.0370
      7 C          61.9952   87.0924   10.4621 C.2     1  UNL1        0.1892
      8 O          61.7228   87.1018    8.9871 O.2     1  UNL1       -0.2899
      9 C          61.7115   85.8605   11.2694 C.3     1  UNL1        0.1424
     10 N          62.7323   84.7643   11.3490 N.3     1  UNL1       -0.2619
     11 C          63.2072   84.2772   12.6858 C.3     1  UNL1        0.1050
     12 C          64.2280   83.1811   12.7654 C.3     1  UNL1        0.1595
     13 O          64.7740   82.5720   11.5080 O.3     1  UNL1       -0.3508
     14 C          64.2992   83.0591   10.1712 C.3     1  UNL1        0.1595
     15 C          63.2784   84.1552   10.0916 C.3     1  UNL1        0.1050
     16 O          64.2201   91.9830   13.1328 O.3     1  UNL1       -0.4754
     17 C          65.6576   92.0159   13.5599 C.3     1  UNL1        0.2068
     18 C          66.4904   93.2355   13.2967 C.3     1  UNL1        0.0646
     19 C          66.2537   94.0531   12.0617 C.3     1  UNL1        0.0759
     20 C          66.9453   96.1805    9.6857 C.3     1  UNL1        0.0173
     21 C          67.3372   94.7329    9.7146 C.3     1  UNL1        0.0576
     22 C          68.1158   94.0090    8.6564 C.3     1  UNL1        0.0174
     23 C          68.2791   92.5837    9.0946 C.3     1  UNL1        0.0187
     24 C          67.6014   92.4268   10.4235 C.3     1  UNL1        0.0721
     25 N          67.0193   93.7551   10.8067 N.3     1  UNL1       -0.2738
@<TRIPOS>BOND
     1    21    20    1
     2    21    22    1
     3    22    23    1
     4    23    24    1
     5    24    25    1
     6    25    19    1
     7    19    18    1
     8    18    17    1
     9    17    16    1
    10    16     1    1
    11     1     2   ar
    12     2     3   ar
    13     3     4   ar
    14     4     7    1
    15     7     8    2
    16     7     9    1
    17     9    10    1
    18    10    11    1
    19    11    12    1
    20    12    13    1
    21    13    14    1
    22    14    15    1
    23     4     5   ar
    24     5     6   ar
    25    25    21    1
    26     6     1   ar
    27    15    10    1
@<TRIPOS>MOLECULE
*****
 25 27 0 0 0
SMALL
GASTEIGER

@<TRIPOS>ATOM
      1 C          62.3774   89.7997   11.7007 C.ar    1  UNL1        0.1386
      2 C          63.0182   89.7161   13.0543 C.ar    1  UNL1        0.0370
      3 C          64.1739   90.6100   13.3935 C.ar    1  UNL1        0.0060
      4 C          64.6889   91.5876   12.3790 C.ar    1  UNL1        0.0363
      5 C          64.0482   91.6712   11.0254 C.ar    1  UNL1        0.0060
      6 C          62.8924   90.7773   10.6862 C.ar    1  UNL1        0.0370
      7 C          65.8447   92.4816   12.7183 C.2     1  UNL1        0.1892
      8 O          65.9010   93.1601   14.0549 O.2     1  UNL1       -0.2899
      9 C          66.9442   92.6970   11.7210 C.3     1  UNL1        0.1424
     10 N          66.9380   93.9181   10.8498 N.3     1  UNL1       -0.2619
     11 C          66.2921   95.1821   11.3347 C.3     1  UNL1        0.1050
     12 C          66.2859   96.4031   10.4636 C.3     1  UNL1        0.1595
     13 O          66.9256   96.3602    9.1075 O.3     1  UNL1       -0.3508
     14 C          67.5715   95.0963    8.6226 C.3     1  UNL1        0.1595
     15 C          67.5777   93.8752    9.4937 C.3     1  UNL1        0.1050
     16 O          61.2216   88.9058   11.3614 O.3     1  UNL1       -0.4754
     17 C          61.2115   88.1526   10.0643 C.3     1  UNL1        0.2068
     18 C          62.0378   86.9099    9.9121 C.3     1  UNL1        0.0646
     19 C          61.7421   85.7048   10.7549 C.3     1  UNL1        0.0759
     20 C          62.7598   84.3735   13.5551 C.3     1  UNL1        0.0173
     21 C          63.2333   84.0051   12.1804 C.3     1  UNL1        0.0576
     22 C          64.2578   82.9600   11.8514 C.3     1  UNL1        0.0174
     23 C          64.4232   82.9260   10.3609 C.3     1  UNL1        0.0187
     24 C          63.5010   83.9501    9.7687 C.3     1  UNL1        0.0721
     25 N          62.7656   84.6170   10.8932 N.3     1  UNL1       -0.2738
@<TRIPOS>BOND
     1    21    20    1
     2    21    22    1
     3    22    23    1
     4    23    24    1
     5    24    25    1
     6    25    19    1
     7    19    18    1
     8    18    17    1
     9    17    16    1
    10    16     1    1
    11     1     2   ar
    12     2     3   ar
    13     3     4   ar
    14     4     7    1
    15     7     8    2
    16     7     9    1
    17     9    10    1
    18    10    11    1
    19    11    12    1
    20    12    13    1
    21    13    14    1
    22    14    15    1
    23     4     5   ar
    24     5     6   ar
    25    25    21    1
    26     6     1   ar
    27    15    10    1
@<TRIPOS>MOLECULE
*****
 25 27 0 0 0
SMALL
GASTEIGER

@<TRIPOS>ATOM
      1 C          62.8446   84.9779    9.7523 C.ar    1  UNL1        0.1386
      2 C          62.4630   85.1397   11.1939 C.ar    1  UNL1        0.0370
      3 C          61.7441   86.3764   11.6452 C.ar    1  UNL1        0.0060
      4 C          61.4068   87.4513   10.6548 C.ar    1  UNL1        0.0363
      5 C          61.7884   87.2895    9.2133 C.ar    1  UNL1        0.0060
      6 C          62.5072   86.0528    8.7620 C.ar    1  UNL1        0.0370
      7 C          60.6879   88.6881   11.1062 C.2     1  UNL1        0.1892
      8 O          59.5119   88.5768   12.0307 O.2     1  UNL1       -0.2899
      9 C          61.1450   90.0361   10.6330 C.3     1  UNL1        0.1424
     10 N          62.4210   90.6230   11.1599 N.3     1  UNL1       -0.2619
     11 C          63.2814   91.4690   10.2690 C.3     1  UNL1        0.1050
     12 C          64.5573   92.0558   10.7959 C.3     1  UNL1        0.1595
     13 O          64.9727   91.7967   12.2137 O.3     1  UNL1       -0.3508
     14 C          64.1122   90.9506   13.1047 C.3     1  UNL1        0.1595
     15 C          62.8364   90.3638   12.5777 C.3     1  UNL1        0.1050
     16 O          63.5635   83.7411    9.3010 O.3     1  UNL1       -0.4754
     17 C          64.4465   82.9957   10.2574 C.3     1  UNL1        0.2068
     18 C          63.8645   81.9355   11.1448 C.3     1  UNL1        0.0646
     19 C          64.3250   81.8120   12.5670 C.3     1  UNL1        0.0759
     20 C          61.5379   81.5374   14.2421 C.3     1  UNL1        0.0173
     21 C          62.5405   82.6452   14.3742 C.3     1  UNL1        0.0576
     22 C          62.4380   83.8213   15.2995 C.3     1  UNL1        0.0174
     23 C          63.6558   84.6745   15.1014 C.3     1  UNL1        0.0187
     24 C          64.5108   84.0256   14.0537 C.3     1  UNL1        0.0721
     25 N          63.8216   82.7715   13.6042 N.3     1  UNL1       -0.2738
@<TRIPOS>BOND
     1    21    20    1
     2    21    22    1
     3    22    23    1
     4    23    24    1
     5    24    25    1
     6    25    19    1
     7    19    18    1
     8    18    17    1
     9    17    16    1
    10    16     1    1
    11     1     2   ar
    12     2     3   ar
    13     3     4   ar
    14     4     7    1
    15     7     8    2
    16     7     9    1
    17     9    10    1
    18    10    11    1
    19    11    12    1
    20    12    13    1
    21    13    14    1
    22    14    15    1
    23     4     5   ar
    24     5     6   ar
    25    25    21    1
    26     6     1   ar
    27    15    10    1
@<TRIPOS>MOLECULE
*****
 25 27 0 0 0
SMALL
GASTEIGER

@<TRIPOS>ATOM
      1 C          63.6810   89.5707   13.3955 C.ar    1  UNL1        0.1386
      2 C          64.3262   89.0112   14.6286 C.ar    1  UNL1        0.0370
      3 C          64.4151   87.5263   14.8206 C.ar    1  UNL1        0.0060
      4 C          63.8587   86.6008   13.7795 C.ar    1  UNL1        0.0363
      5 C          63.2135   87.1603   12.5464 C.ar    1  UNL1        0.0060
      6 C          63.1246   88.6452   12.3544 C.ar    1  UNL1        0.0370
      7 C          63.9476   85.1157   13.9715 C.2     1  UNL1        0.1892
      8 O          65.2870   84.4581   14.1246 O.2     1  UNL1       -0.2899
      9 C          62.6970   84.2884   14.0105 C.3     1  UNL1        0.1424
     10 N          62.6844   82.9189   13.3985 N.3     1  UNL1       -0.2619
     11 C          62.2630   81.7352   14.2177 C.3     1  UNL1        0.1050
     12 C          62.2503   80.3658   13.6056 C.3     1  UNL1        0.1595
     13 O          62.6592   80.1801   12.1744 O.3     1  UNL1       -0.3508
     14 C          63.0806   81.3639   11.3552 C.3     1  UNL1        0.1595
     15 C          63.0933   82.7332   11.9673 C.3     1  UNL1        0.1050
     16 O          63.5921   91.0558   13.2035 O.3     1  UNL1       -0.4754
     17 C          64.8441   91.8707   13.0674 C.3     1  UNL1        0.2068
     18 C          65.3927   92.1810   11.7062 C.3     1  UNL1        0.0646
     19 C          66.7779   92.7389   11.5652 C.3     1  UNL1        0.0759
     20 C          68.5516   92.5460    8.8328 C.3     1  UNL1        0.0173
     21 C          67.8560   93.7711    9.3478 C.3     1  UNL1        0.0576
     22 C          67.8536   95.1227    8.6972 C.3     1  UNL1        0.0174
     23 C          67.0368   96.0467    9.5511 C.3     1  UNL1        0.0187
     24 C          66.5345   95.2662   10.7294 C.3     1  UNL1        0.0721
     25 N          67.0408   93.8598   10.6038 N.3     1  UNL1       -0.2738
@<TRIPOS>BOND
     1    21    20    1
     2    21    22    1
     3    22    23    1
     4    23    24    1
     5    24    25    1
     6    25    19    1
     7    19    18    1
     8    18    17    1
     9    17    16    1
    10    16     1    1
    11     1     2   ar
    12     2     3   ar
    13     3     4   ar
    14     4     7    1
    15     7     8    2
    16     7     9    1
    17     9    10    1
    18    10    11    1
    19    11    12    1
    20    12    13    1
    21    13    14    1
    22    14    15    1
    23     4     5   ar
    24     5     6   ar
    25    25    21    1
    26     6     1   ar
    27    15    10    1
@<TRIPOS>MOLECULE
*****
 25 27 0 0 0
SMALL
GASTEIGER

@<TRIPOS>ATOM
      1 C          64.2427   90.2326   13.8743 C.ar    1  UNL1        0.1386
      2 C          64.6056   89.0931   14.7797 C.ar    1  UNL1        0.0370
      3 C          64.2256   87.6902   14.4088 C.ar    1  UNL1        0.0060
      4 C          63.4827   87.4269   13.1326 C.ar    1  UNL1        0.0363
      5 C          63.1199   88.5664   12.2272 C.ar    1  UNL1        0.0060
      6 C          63.4999   89.9693   12.5980 C.ar    1  UNL1        0.0370
      7 C          63.1027   86.0240   12.7618 C.2     1  UNL1        0.1892
      8 O          61.9811   85.7812   11.7958 O.2     1  UNL1       -0.2899
      9 C          63.8443   84.8639   13.3569 C.3     1  UNL1        0.1424
     10 N          63.2599   83.4842   13.2861 N.3     1  UNL1       -0.2619
     11 C          63.5458   82.6085   12.1023 C.3     1  UNL1        0.1050
     12 C          62.9614   81.2288   12.0315 C.3     1  UNL1        0.1595
     13 O          62.0911   80.7249   13.1445 O.3     1  UNL1       -0.3508
     14 C          61.8053   81.6006   14.3283 C.3     1  UNL1        0.1595
     15 C          62.3897   82.9803   14.3991 C.3     1  UNL1        0.1050
     16 O          64.6227   91.6355   14.2451 O.3     1  UNL1       -0.4754
     17 C          65.8158   91.8831   15.1198 C.3     1  UNL1        0.2068
     18 C          66.8678   92.8639   14.6936 C.3     1  UNL1        0.0646
     19 C          66.5145   93.9848   13.7617 C.3     1  UNL1        0.0759
     20 C          66.0807   96.2862   11.4891 C.3     1  UNL1        0.0173
     21 C          66.4356   94.8513   11.2343 C.3     1  UNL1        0.0576
     22 C          66.6533   94.2223    9.8901 C.3     1  UNL1        0.0174
     23 C          66.9873   92.7756   10.1038 C.3     1  UNL1        0.0187
     24 C          66.9759   92.5106   11.5802 C.3     1  UNL1        0.0721
     25 N          66.6350   93.7934   12.2788 N.3     1  UNL1       -0.2738
@<TRIPOS>BOND
     1    21    20    1
     2    21    22    1
     3    22    23    1
     4    23    24    1
     5    24    25    1
     6    25    19    1
     7    19    18    1
     8    18    17    1
     9    17    16    1
    10    16     1    1
    11     1     2   ar
    12     2     3   ar
    13     3     4   ar
    14     4     7    1
    15     7     8    2
    16     7     9    1
    17     9    10    1
    18    10    11    1
    19    11    12    1
    20    12    13    1
    21    13    14    1
    22    14    15    1
    23     4     5   ar
    24     5     6   ar
    25    25    21    1
    26     6     1   ar
    27    15    10    1
